*SPEF "IEEE 1481-1998"
*DESIGN "i2c_master_top"
*DATE "Wed Apr 07 14:36:23 2021"
*VENDOR "AUC CSCE Department"
*PROGRAM "SPEF Extractor"
*VERSION "1.0"
*DESIGN_FLOW "PIN_CAP NONE"
*DIVIDER /
*DELIMITER :
*BUS_DELIMITER []
*T_UNIT 1.00000 NS
*C_UNIT 1.00000 PF
*R_UNIT 1.00000 OHM
*L_UNIT 1.00000 HENRY


*NAME_MAP
*0 arst_i
*1 scl_pad_i
*2 scl_pad_o
*3 scl_padoen_o
*4 sda_pad_i
*5 sda_pad_o
*6 sda_padoen_o
*7 wb_ack_o
*8 wb_adr_i[0]
*9 wb_adr_i[1]
*10 wb_adr_i[2]
*11 wb_clk_i
*12 wb_cyc_i
*13 wb_dat_i[0]
*14 wb_dat_i[1]
*15 wb_dat_i[2]
*16 wb_dat_i[3]
*17 wb_dat_i[4]
*18 wb_dat_i[5]
*19 wb_dat_i[6]
*20 wb_dat_i[7]
*21 wb_dat_o[0]
*22 wb_dat_o[1]
*23 wb_dat_o[2]
*24 wb_dat_o[3]
*25 wb_dat_o[4]
*26 wb_dat_o[5]
*27 wb_dat_o[6]
*28 wb_dat_o[7]
*29 wb_inta_o
*30 wb_rst_i
*31 wb_stb_i
*32 wb_we_i
*33 _0000_
*34 _0001_
*35 _0002_
*36 _0003_
*37 _0004_
*38 _0005_
*39 _0006_
*40 _0007_
*41 _0008_
*42 _0009_
*43 _0010_
*44 _0011_
*45 _0012_
*46 _0013_
*47 _0014_
*48 _0015_
*49 _0016_
*50 _0017_
*51 _0018_
*52 _0019_
*53 _0020_
*54 _0021_
*55 _0022_
*56 _0023_
*57 _0024_
*58 _0025_
*59 _0026_
*60 _0027_
*61 _0028_
*62 _0029_
*63 _0030_
*64 _0031_
*65 _0032_
*66 _0033_
*67 _0034_
*68 _0035_
*69 _0036_
*70 _0037_
*71 _0038_
*72 _0039_
*73 _0040_
*74 _0041_
*75 _0042_
*76 _0043_
*77 _0044_
*78 _0045_
*79 _0046_
*80 _0047_
*81 _0048_
*82 _0049_
*83 _0050_
*84 _0051_
*85 _0052_
*86 _0053_
*87 _0054_
*88 _0055_
*89 _0056_
*90 _0057_
*91 _0058_
*92 _0059_
*93 _0060_
*94 _0061_
*95 _0062_
*96 _0063_
*97 _0064_
*98 _0065_
*99 _0066_
*100 _0067_
*101 _0068_
*102 _0069_
*103 _0070_
*104 _0071_
*105 _0072_
*106 _0073_
*107 _0074_
*108 _0075_
*109 _0076_
*110 _0077_
*111 _0078_
*112 _0079_
*113 _0080_
*114 _0081_
*115 _0082_
*116 _0083_
*117 _0084_
*118 _0085_
*119 _0086_
*120 _0087_
*121 _0088_
*122 _0089_
*123 _0090_
*124 _0091_
*125 _0092_
*126 _0093_
*127 _0094_
*128 _0095_
*129 _0096_
*130 _0097_
*131 _0098_
*132 _0099_
*133 _0100_
*134 _0101_
*135 _0102_
*136 _0103_
*137 _0104_
*138 _0105_
*139 _0106_
*140 _0107_
*141 _0108_
*142 _0109_
*143 _0110_
*144 _0111_
*145 _0112_
*146 _0113_
*147 _0114_
*148 _0115_
*149 _0116_
*150 _0117_
*151 _0118_
*152 _0119_
*153 _0120_
*154 _0121_
*155 _0122_
*156 _0123_
*157 _0124_
*158 _0125_
*159 _0126_
*160 _0127_
*161 _0128_
*162 _0129_
*163 _0130_
*164 _0131_
*165 _0132_
*166 _0133_
*167 _0134_
*168 _0135_
*169 _0136_
*170 _0137_
*171 _0138_
*172 _0139_
*173 _0140_
*174 _0141_
*175 _0142_
*176 _0143_
*177 _0144_
*178 _0145_
*179 _0146_
*180 _0147_
*181 _0148_
*182 _0149_
*183 _0150_
*184 _0151_
*185 _0152_
*186 _0153_
*187 _0154_
*188 _0155_
*189 _0156_
*190 _0157_
*191 _0158_
*192 _0159_
*193 _0160_
*194 _0161_
*195 _0162_
*196 _0163_
*197 _0164_
*198 _0165_
*199 _0166_
*200 _0167_
*201 _0168_
*202 _0169_
*203 _0170_
*204 _0171_
*205 _0172_
*206 _0173_
*207 _0174_
*208 _0175_
*209 _0176_
*210 _0177_
*211 _0178_
*212 _0179_
*213 _0180_
*214 _0181_
*215 _0182_
*216 _0183_
*217 _0184_
*218 _0185_
*219 _0186_
*220 _0187_
*221 _0188_
*222 _0189_
*223 _0190_
*224 _0191_
*225 _0192_
*226 _0193_
*227 _0194_
*228 _0195_
*229 _0196_
*230 _0197_
*231 _0198_
*232 _0199_
*233 _0200_
*234 _0201_
*235 _0202_
*236 _0203_
*237 _0204_
*238 _0205_
*239 _0206_
*240 _0207_
*241 _0208_
*242 _0209_
*243 _0210_
*244 _0211_
*245 _0212_
*246 _0213_
*247 _0214_
*248 _0215_
*249 _0216_
*250 _0217_
*251 _0218_
*252 _0219_
*253 _0220_
*254 _0221_
*255 _0222_
*256 _0223_
*257 _0224_
*258 _0225_
*259 _0226_
*260 _0227_
*261 _0228_
*262 _0229_
*263 _0230_
*264 _0231_
*265 _0232_
*266 _0233_
*267 _0234_
*268 _0235_
*269 _0236_
*270 _0237_
*271 _0238_
*272 _0239_
*273 _0240_
*274 _0241_
*275 _0242_
*276 _0243_
*277 _0244_
*278 _0245_
*279 _0246_
*280 _0247_
*281 _0248_
*282 _0249_
*283 _0250_
*284 _0251_
*285 _0252_
*286 _0253_
*287 _0254_
*288 _0255_
*289 _0256_
*290 _0257_
*291 _0258_
*292 _0259_
*293 _0260_
*294 _0261_
*295 _0262_
*296 _0263_
*297 _0264_
*298 _0265_
*299 _0266_
*300 _0267_
*301 _0268_
*302 _0269_
*303 _0270_
*304 _0271_
*305 _0272_
*306 _0273_
*307 _0274_
*308 _0275_
*309 _0276_
*310 _0277_
*311 _0278_
*312 _0279_
*313 _0280_
*314 _0281_
*315 _0282_
*316 _0283_
*317 _0284_
*318 _0285_
*319 _0286_
*320 _0287_
*321 _0288_
*322 _0289_
*323 _0290_
*324 _0291_
*325 _0292_
*326 _0293_
*327 _0294_
*328 _0295_
*329 _0296_
*330 _0297_
*331 _0298_
*332 _0299_
*333 _0300_
*334 _0301_
*335 _0302_
*336 _0303_
*337 _0304_
*338 _0305_
*339 _0306_
*340 _0307_
*341 _0308_
*342 _0309_
*343 _0310_
*344 _0311_
*345 _0312_
*346 _0313_
*347 _0314_
*348 _0315_
*349 _0316_
*350 _0317_
*351 _0318_
*352 _0319_
*353 _0320_
*354 _0321_
*355 _0322_
*356 _0323_
*357 _0324_
*358 _0325_
*359 _0326_
*360 _0327_
*361 _0328_
*362 _0329_
*363 _0330_
*364 _0331_
*365 _0332_
*366 _0333_
*367 _0334_
*368 _0335_
*369 _0336_
*370 _0337_
*371 _0338_
*372 _0339_
*373 _0340_
*374 _0341_
*375 _0342_
*376 _0343_
*377 _0344_
*378 _0345_
*379 _0346_
*380 _0347_
*381 _0348_
*382 _0349_
*383 _0350_
*384 _0351_
*385 _0352_
*386 _0353_
*387 _0354_
*388 _0355_
*389 _0356_
*390 _0357_
*391 _0358_
*392 _0359_
*393 _0360_
*394 _0361_
*395 _0362_
*396 _0363_
*397 _0364_
*398 _0365_
*399 _0366_
*400 _0367_
*401 _0368_
*402 _0369_
*403 _0370_
*404 _0371_
*405 _0372_
*406 _0373_
*407 _0374_
*408 _0375_
*409 _0376_
*410 _0377_
*411 _0378_
*412 _0379_
*413 _0380_
*414 _0381_
*415 _0382_
*416 _0383_
*417 _0384_
*418 _0385_
*419 _0386_
*420 _0387_
*421 _0388_
*422 _0389_
*423 _0390_
*424 _0391_
*425 _0392_
*426 _0393_
*427 _0394_
*428 _0395_
*429 _0396_
*430 _0397_
*431 _0398_
*432 _0399_
*433 _0400_
*434 _0401_
*435 _0402_
*436 _0403_
*437 _0404_
*438 _0405_
*439 _0406_
*440 _0407_
*441 _0408_
*442 _0409_
*443 _0410_
*444 _0411_
*445 _0412_
*446 _0413_
*447 _0414_
*448 _0415_
*449 _0416_
*450 _0417_
*451 _0418_
*452 _0419_
*453 _0420_
*454 _0421_
*455 _0422_
*456 _0423_
*457 _0424_
*458 _0425_
*459 _0426_
*460 _0427_
*461 _0428_
*462 _0429_
*463 _0430_
*464 _0431_
*465 _0432_
*466 _0433_
*467 _0434_
*468 _0435_
*469 _0436_
*470 _0437_
*471 _0438_
*472 _0439_
*473 _0440_
*474 _0441_
*475 _0442_
*476 _0443_
*477 _0444_
*478 _0445_
*479 _0446_
*480 _0447_
*481 _0448_
*482 _0449_
*483 _0450_
*484 _0451_
*485 _0452_
*486 _0453_
*487 _0454_
*488 _0455_
*489 _0456_
*490 _0457_
*491 _0458_
*492 _0459_
*493 _0460_
*494 _0461_
*495 _0462_
*496 _0463_
*497 _0464_
*498 _0465_
*499 _0466_
*500 _0467_
*501 _0468_
*502 _0469_
*503 _0470_
*504 _0471_
*505 _0472_
*506 _0473_
*507 _0474_
*508 _0475_
*509 _0476_
*510 _0477_
*511 _0478_
*512 _0479_
*513 _0480_
*514 _0481_
*515 _0482_
*516 _0483_
*517 _0484_
*518 _0485_
*519 _0486_
*520 _0487_
*521 _0488_
*522 _0489_
*523 _0490_
*524 _0491_
*525 _0492_
*526 _0493_
*527 _0494_
*528 _0495_
*529 _0496_
*530 _0497_
*531 _0498_
*532 _0499_
*533 _0500_
*534 _0501_
*535 _0502_
*536 _0503_
*537 _0504_
*538 _0505_
*539 _0506_
*540 _0507_
*541 _0508_
*542 _0509_
*543 _0510_
*544 _0511_
*545 _0512_
*546 _0513_
*547 _0514_
*548 _0515_
*549 _0516_
*550 _0517_
*551 _0518_
*552 _0519_
*553 _0520_
*554 _0521_
*555 _0522_
*556 _0523_
*557 _0524_
*558 _0525_
*559 _0526_
*560 _0527_
*561 _0528_
*562 _0529_
*563 _0530_
*564 _0531_
*565 _0532_
*566 _0533_
*567 _0534_
*568 _0535_
*569 _0536_
*570 _0537_
*571 _0538_
*572 _0539_
*573 _0540_
*574 _0541_
*575 _0542_
*576 _0543_
*577 _0544_
*578 _0545_
*579 _0546_
*580 _0547_
*581 _0548_
*582 _0549_
*583 _0550_
*584 _0551_
*585 _0552_
*586 _0553_
*587 _0554_
*588 _0555_
*589 _0556_
*590 _0557_
*591 _0558_
*592 _0559_
*593 _0560_
*594 _0561_
*595 _0562_
*596 _0563_
*597 _0564_
*598 _0565_
*599 _0566_
*600 _0567_
*601 _0568_
*602 _0569_
*603 _0570_
*604 _0571_
*605 _0572_
*606 _0573_
*607 _0574_
*608 _0575_
*609 _0576_
*610 _0577_
*611 _0578_
*612 _0579_
*613 _0580_
*614 _0581_
*615 _0582_
*616 _0583_
*617 _0584_
*618 _0585_
*619 _0586_
*620 _0587_
*621 _0588_
*622 _0589_
*623 _0590_
*624 _0591_
*625 _0592_
*626 _0593_
*627 _0594_
*628 _0595_
*629 _0596_
*630 _0597_
*631 _0598_
*632 _0599_
*633 _0600_
*634 _0601_
*635 _0602_
*636 _0603_
*637 _0604_
*638 _0605_
*639 _0606_
*640 _0607_
*641 _0608_
*642 _0609_
*643 _0610_
*644 _0611_
*645 al
*646 byte_controller.ack_in
*647 byte_controller.ack_out
*648 byte_controller.bit_controller.al
*649 byte_controller.bit_controller.busy
*650 byte_controller.bit_controller.cSCL\[0\]
*651 byte_controller.bit_controller.cSCL\[1\]
*652 byte_controller.bit_controller.cSDA\[0\]
*653 byte_controller.bit_controller.cSDA\[1\]
*654 byte_controller.bit_controller.c_state\[0\]
*655 byte_controller.bit_controller.c_state\[10\]
*656 byte_controller.bit_controller.c_state\[11\]
*657 byte_controller.bit_controller.c_state\[12\]
*658 byte_controller.bit_controller.c_state\[13\]
*659 byte_controller.bit_controller.c_state\[14\]
*660 byte_controller.bit_controller.c_state\[15\]
*661 byte_controller.bit_controller.c_state\[16\]
*662 byte_controller.bit_controller.c_state\[1\]
*663 byte_controller.bit_controller.c_state\[2\]
*664 byte_controller.bit_controller.c_state\[3\]
*665 byte_controller.bit_controller.c_state\[4\]
*666 byte_controller.bit_controller.c_state\[5\]
*667 byte_controller.bit_controller.c_state\[6\]
*668 byte_controller.bit_controller.c_state\[7\]
*669 byte_controller.bit_controller.c_state\[8\]
*670 byte_controller.bit_controller.c_state\[9\]
*671 byte_controller.bit_controller.clk_cnt\[0\]
*672 byte_controller.bit_controller.clk_cnt\[10\]
*673 byte_controller.bit_controller.clk_cnt\[11\]
*674 byte_controller.bit_controller.clk_cnt\[12\]
*675 byte_controller.bit_controller.clk_cnt\[13\]
*676 byte_controller.bit_controller.clk_cnt\[14\]
*677 byte_controller.bit_controller.clk_cnt\[15\]
*678 byte_controller.bit_controller.clk_cnt\[1\]
*679 byte_controller.bit_controller.clk_cnt\[2\]
*680 byte_controller.bit_controller.clk_cnt\[3\]
*681 byte_controller.bit_controller.clk_cnt\[4\]
*682 byte_controller.bit_controller.clk_cnt\[5\]
*683 byte_controller.bit_controller.clk_cnt\[6\]
*684 byte_controller.bit_controller.clk_cnt\[7\]
*685 byte_controller.bit_controller.clk_cnt\[8\]
*686 byte_controller.bit_controller.clk_cnt\[9\]
*687 byte_controller.bit_controller.clk_en
*688 byte_controller.bit_controller.cmd_ack
*689 byte_controller.bit_controller.cmd_stop
*690 byte_controller.bit_controller.cnt\[0\]
*691 byte_controller.bit_controller.cnt\[10\]
*692 byte_controller.bit_controller.cnt\[11\]
*693 byte_controller.bit_controller.cnt\[12\]
*694 byte_controller.bit_controller.cnt\[13\]
*695 byte_controller.bit_controller.cnt\[14\]
*696 byte_controller.bit_controller.cnt\[15\]
*697 byte_controller.bit_controller.cnt\[1\]
*698 byte_controller.bit_controller.cnt\[2\]
*699 byte_controller.bit_controller.cnt\[3\]
*700 byte_controller.bit_controller.cnt\[4\]
*701 byte_controller.bit_controller.cnt\[5\]
*702 byte_controller.bit_controller.cnt\[6\]
*703 byte_controller.bit_controller.cnt\[7\]
*704 byte_controller.bit_controller.cnt\[8\]
*705 byte_controller.bit_controller.cnt\[9\]
*706 byte_controller.bit_controller.dSCL
*707 byte_controller.bit_controller.dSDA
*708 byte_controller.bit_controller.din
*709 byte_controller.bit_controller.dout
*710 byte_controller.bit_controller.dscl_oen
*711 byte_controller.bit_controller.ena
*712 byte_controller.bit_controller.fSCL\[0\]
*713 byte_controller.bit_controller.fSCL\[1\]
*714 byte_controller.bit_controller.fSCL\[2\]
*715 byte_controller.bit_controller.fSDA\[0\]
*716 byte_controller.bit_controller.fSDA\[1\]
*717 byte_controller.bit_controller.fSDA\[2\]
*718 byte_controller.bit_controller.filter_cnt\[0\]
*719 byte_controller.bit_controller.filter_cnt\[10\]
*720 byte_controller.bit_controller.filter_cnt\[11\]
*721 byte_controller.bit_controller.filter_cnt\[12\]
*722 byte_controller.bit_controller.filter_cnt\[13\]
*723 byte_controller.bit_controller.filter_cnt\[1\]
*724 byte_controller.bit_controller.filter_cnt\[2\]
*725 byte_controller.bit_controller.filter_cnt\[3\]
*726 byte_controller.bit_controller.filter_cnt\[4\]
*727 byte_controller.bit_controller.filter_cnt\[5\]
*728 byte_controller.bit_controller.filter_cnt\[6\]
*729 byte_controller.bit_controller.filter_cnt\[7\]
*730 byte_controller.bit_controller.filter_cnt\[8\]
*731 byte_controller.bit_controller.filter_cnt\[9\]
*732 byte_controller.bit_controller.sSCL
*733 byte_controller.bit_controller.sSDA
*734 byte_controller.bit_controller.sda_chk
*735 byte_controller.bit_controller.slave_wait
*736 byte_controller.bit_controller.sta_condition
*737 byte_controller.bit_controller.sto_condition
*738 byte_controller.c_state\[0\]
*739 byte_controller.c_state\[1\]
*740 byte_controller.c_state\[2\]
*741 byte_controller.c_state\[3\]
*742 byte_controller.c_state\[4\]
*743 byte_controller.c_state\[5\]
*744 byte_controller.cmd_ack
*745 byte_controller.core_cmd\[1\]
*746 byte_controller.core_cmd\[2\]
*747 byte_controller.core_cmd\[3\]
*748 byte_controller.core_cmd\[4\]
*749 byte_controller.dcnt\[0\]
*750 byte_controller.dcnt\[1\]
*751 byte_controller.dcnt\[2\]
*752 byte_controller.din\[0\]
*753 byte_controller.din\[1\]
*754 byte_controller.din\[2\]
*755 byte_controller.din\[3\]
*756 byte_controller.din\[4\]
*757 byte_controller.din\[5\]
*758 byte_controller.din\[6\]
*759 byte_controller.din\[7\]
*760 byte_controller.dout\[0\]
*761 byte_controller.dout\[1\]
*762 byte_controller.dout\[2\]
*763 byte_controller.dout\[3\]
*764 byte_controller.dout\[4\]
*765 byte_controller.dout\[5\]
*766 byte_controller.dout\[6\]
*767 byte_controller.dout\[7\]
*768 byte_controller.ld
*769 byte_controller.read
*770 byte_controller.shift
*771 byte_controller.start
*772 byte_controller.stop
*773 byte_controller.write
*774 cr\[0\]
*775 cr\[1\]
*776 cr\[2\]
*777 ctr\[0\]
*778 ctr\[1\]
*779 ctr\[2\]
*780 ctr\[3\]
*781 ctr\[4\]
*782 ctr\[5\]
*783 ctr\[6\]
*784 irq_flag
*785 rxack
*786 tip
*787 net1
*788 net2
*789 net3
*790 net4
*791 net5
*792 net6
*793 net7
*794 net8
*795 net9
*796 net10
*797 net11
*798 net12
*799 net13
*800 net14
*801 net15
*802 net16
*803 net17
*804 net18
*805 net19
*806 net20
*807 net21
*808 net22
*809 net23
*810 net24
*811 net25
*812 net26
*813 net27
*814 net28
*815 net29
*816 net30
*817 net31
*818 net32
*819 net33
*820 net34
*821 net35
*822 net36
*823 net37
*824 net38
*825 net39
*826 net40
*827 clknet_0_wb_clk_i
*828 clknet_3_0_0_wb_clk_i
*829 clknet_3_1_0_wb_clk_i
*830 clknet_3_2_0_wb_clk_i
*831 clknet_3_3_0_wb_clk_i
*832 clknet_3_4_0_wb_clk_i
*833 clknet_3_5_0_wb_clk_i
*834 clknet_3_6_0_wb_clk_i
*835 clknet_3_7_0_wb_clk_i
*836 clknet_4_0_0_wb_clk_i
*837 clknet_4_1_0_wb_clk_i
*838 clknet_4_2_0_wb_clk_i
*839 clknet_4_3_0_wb_clk_i
*840 clknet_4_4_0_wb_clk_i
*841 clknet_4_5_0_wb_clk_i
*842 clknet_4_6_0_wb_clk_i
*843 clknet_4_7_0_wb_clk_i
*844 clknet_4_8_0_wb_clk_i
*845 clknet_4_9_0_wb_clk_i
*846 clknet_4_10_0_wb_clk_i
*847 clknet_4_11_0_wb_clk_i
*848 clknet_4_12_0_wb_clk_i
*849 clknet_4_13_0_wb_clk_i
*850 clknet_4_14_0_wb_clk_i
*851 clknet_4_15_0_wb_clk_i

*D_NET *0 0.0007752004416600002
*CONN
*P arst_i I
*I input1:A I
*CAP
0 *0:1 0.0006858781437400002
1 input1:A 8.932229792e-05
2 *0:3 0
*RES
0 *0:1 *0:2 7.741071428571428
1 input1:A *0:3 0.8214285714285714
2 *0:3 *0:2 0
3 input1:A input1:A 0
*END

*D_NET *1 0.0007891838196600001
*CONN
*P scl_pad_i I
*I input2:A I
*CAP
3 input2:A 5.034052896000001e-05
4 *1:2 0.0007388432907000001
5 *1:1 0
*RES
4 input2:A *1:1 0.4107142857142857
5 *1:2 *1:3 8.348214285714285
6 input2:A input2:A 0
7 *1:1 *1:2 0
*END

*D_NET *2 0.0008531639795800001
*CONN
*P scl_pad_o O
*I output19:X O
*CAP
6 *2:1 0.00016728583584
7 *2:2 0.0006858781437400002
8 output19:X 0
*RES
8 *2:1 output19:X 1.6428571428571428
9 *2:2 *2:3 7.741071428571428
10 output19:X output19:X 0
11 *2:1 *2:2 0
*END

*D_NET *3 0.0007752004416600002
*CONN
*P scl_padoen_o O
*I output20:X O
*CAP
9 *3:1 8.932229792e-05
10 *3:2 0.0006858781437400002
11 output20:X 0
*RES
12 *3:1 output20:X 0.8214285714285714
13 *3:2 *3:3 7.741071428571428
14 output20:X output20:X 0
15 *3:1 *3:2 0
*END

*D_NET *4 0.00121035261112
*CONN
*P sda_pad_i I
*I input3:A I
*CAP
12 *4:1 0.00016728583584
13 *4:2 0.00036808726198
14 *4:4 0.0006749795133
15 input3:A 0
*RES
16 *4:1 input3:A 1.6428571428571428
17 *4:2 *4:3 4.098214285714286
18 *4:4 *4:5 1.1891
19 input3:A input3:A 0
20 *4:1 *4:3 0
21 *4:2 *4:4 0
*END

*D_NET *5 0.00103895797476
*CONN
*P sda_pad_o O
*I output21:X O
*CAP
16 *5:1 0.00023567439458000006
17 *5:3 0.0006749795133
18 *5:5 0.00012830406688
19 output21:X 0
*RES
22 *5:1 *5:2 2.580357142857143
23 *5:3 *5:4 1.1891
24 *5:5 output21:X 1.232142857142857
25 *5:1 *5:3 0
26 *5:5 *5:2 0
27 output21:X output21:X 0
*END

*D_NET *6 0.0006064304233
*CONN
*P sda_padoen_o O
*I output22:X O
*CAP
20 *6:1 0.0006064304233
21 output22:X 0
*RES
28 *6:1 *6:2 6.830357142857142
29 output22:X output22:X 0
30 output22:X *6:2 0
*END

*D_NET *7 0.00063291299678
*CONN
*P wb_ack_o O
*I output23:X O
*CAP
22 *7:1 0.00063291299678
23 output23:X 0
*RES
31 *7:1 *7:2 7.133928571428571
32 output23:X output23:X 0
33 output23:X *7:2 0
*END

*D_NET *8 0.00082816558862
*CONN
*P wb_adr_i[0] I
*I input4:A I
*CAP
24 *8:1 8.932229792e-05
25 *8:2 0.0007388432907000001
26 input4:A 0
*RES
34 *8:1 input4:A 0.8214285714285714
35 *8:2 *8:3 8.348214285714285
36 input4:A input4:A 0
37 *8:1 *8:2 0
*END

*D_NET *9 0.00098409266446
*CONN
*P wb_adr_i[1] I
*I input5:A I
*CAP
27 *9:1 0.00024524937376
28 *9:2 0.0007388432907000001
29 input5:A 0
*RES
38 *9:1 input5:A 2.464285714285714
39 *9:2 *9:3 8.348214285714285
40 input5:A input5:A 0
41 *9:1 *9:2 0
*END

*D_NET *10 0.00060702387292
*CONN
*P wb_adr_i[2] I
*I input6:A I
*CAP
30 *10:1 0.0005567274927
31 *10:3 5.029638022e-05
32 input6:A 0
*RES
42 *10:1 *10:2 0.9729000000000001
43 *10:3 *10:4 0.45535714285714285
44 *10:3 *10:2 0
45 input6:A input6:A 0
46 input6:A *10:4 0
*END

*D_NET *11 0.01168053775218
*CONN
*P wb_clk_i I
*I clkbuf_0_wb_clk_i:A I
*CAP
33 *11:1 0.0010831167459400002
34 *11:3 0.0003621946806399999
35 *11:5 0.0016485930563200002
36 *11:6 4.017137184e-05
37 *11:7 0.00039990530496
38 *11:9 0.0007154913487999999
39 *11:10 4.017137184e-05
40 *11:12 0.005042261481199999
41 *11:11 0.0008494667926400001
42 *11:14 4.017137184e-05
43 *11:15 0.00026474025824
44 *11:17 6.353766696000002e-05
45 *11:19 0.00055710352544
46 *11:21 0.00032836340175999997
47 *11:23 0.00024524937376
48 *11:4 0
49 *11:16 0
50 *11:20 0
51 clkbuf_0_wb_clk_i:A 0
*RES
47 *11:1 *11:2 12.294642857142856
48 *11:3 *11:4 3.6964285714285707
49 *11:5 *11:6 17.25
50 *11:6 *11:7 0.30357142857142855
51 *11:7 *11:8 4.09375
52 *11:9 *11:8 0.30357142857142855
53 *11:9 *11:10 6.9955357142857135
54 *11:10 *11:11 0.30357142857142855
55 *11:12 *11:13 57.678571428571416
56 *11:11 *11:14 8.830357142857142
57 *11:14 *11:15 0.30357142857142855
58 *11:15 *11:16 2.669642857142857
59 *11:17 *11:18 0.6071428571428571
60 *11:19 *11:20 5.75
61 *11:21 *11:22 3.642857142857143
62 *11:23 clkbuf_0_wb_clk_i:A 2.464285714285714
63 *11:3 *11:2 0
64 *11:4 *11:12 0
65 *11:5 *11:13 0
66 *11:16 *11:18 0
67 *11:19 *11:17 0
68 *11:20 *11:22 0
69 *11:23 *11:21 0
70 clkbuf_0_wb_clk_i:A clkbuf_0_wb_clk_i:A 0
*END

*D_NET *12 0.00060702387292
*CONN
*P wb_cyc_i I
*I input7:A I
*CAP
52 *12:1 5.029638022e-05
53 *12:3 0.0005567274927
54 input7:A 0
55 *12:2 0
*RES
71 *12:1 *12:2 0.45535714285714285
72 *12:3 *12:4 0.9729000000000001
73 input7:A input7:A 0
74 input7:A *12:1 0
75 *12:2 *12:4 0
*END

*D_NET *13 0.0011400197403
*CONN
*P wb_dat_i[0] I
*I input8:A I
*CAP
56 *13:1 0.00040117644959999997
57 *13:2 0.0007388432907000001
58 input8:A 0
*RES
76 *13:1 input8:A 4.107142857142857
77 *13:2 *13:3 8.348214285714285
78 input8:A input8:A 0
79 *13:1 *13:2 0
*END

*D_NET *14 0.00208902558146
*CONN
*P wb_dat_i[1] I
*I input9:A I
*CAP
59 *14:1 0.0005777840127999999
60 *14:2 0.00065939557026
61 *14:4 0.0004791399875199999
62 *14:5 6.898398368e-05
63 *14:6 0.00030372202720000004
64 input9:A 0
*RES
80 *14:1 input9:A 5.544642857142857
81 *14:2 *14:3 7.437499999999999
82 *14:4 *14:5 4.928571428571428
83 *14:5 *14:6 0.6071428571428571
84 *14:6 *14:7 3.080357142857143
85 *14:1 *14:7 0.30357142857142855
86 input9:A input9:A 0
87 *14:4 *14:3 0
*END

*D_NET *15 0.00082816558862
*CONN
*P wb_dat_i[2] I
*I input10:A I
*CAP
65 *15:1 8.932229792e-05
66 *15:2 0.0007388432907000001
67 input10:A 0
*RES
88 *15:1 input10:A 0.8214285714285714
89 *15:2 *15:3 8.348214285714285
90 input10:A input10:A 0
91 *15:1 *15:2 0
*END

*D_NET *16 0.00054112395924
*CONN
*P wb_dat_i[3] I
*I input11:A I
*CAP
68 *16:1 2.3813806740000006e-05
69 *16:3 0.0005173101524999999
70 input11:A 0
71 *16:2 0
*RES
92 *16:1 *16:2 0.15178571428571427
93 *16:3 *16:4 0.9008333333333334
94 input11:A input11:A 0
95 input11:A *16:1 0
96 *16:2 *16:3 0
*END

*D_NET *17 0.0013453178627399998
*CONN
*P wb_dat_i[4] I
*I input12:A I
*CAP
72 input12:A 5.034052896000001e-05
73 *17:2 0.0012949773337799998
74 *17:1 0
*RES
97 input12:A *17:1 0.4107142857142857
98 *17:2 *17:3 14.723214285714283
99 *17:1 *17:3 0
100 input12:A input12:A 0
*END

*D_NET *18 0.00071295416684
*CONN
*P wb_dat_i[5] I
*I input13:A I
*CAP
75 *18:1 0.00015622667414000004
76 *18:3 0.0005567274927
77 input13:A 0
78 *18:2 0
*RES
101 *18:1 *18:2 1.669642857142857
102 *18:3 *18:4 0.9729000000000001
103 input13:A input13:A 0
104 input13:A *18:1 0
105 *18:2 *18:3 0
*END

*D_NET *19 0.00127065384554
*CONN
*P wb_dat_i[6] I
*I input14:A I
*CAP
79 input14:A 4.017137184e-05
80 *19:2 0.0005181217564799999
81 *19:3 0.0007123607172200001
*RES
106 input14:A *19:1 0.30357142857142855
107 *19:2 *19:1 5.339285714285714
108 *19:3 *19:4 8.044642857142856
109 input14:A input14:A 0
110 *19:2 *19:3 0
*END

*D_NET *20 0.00218889760992
*CONN
*P wb_dat_i[7] I
*I input15:A I
*CAP
82 *20:1 0.00020919182110000001
83 input15:A 0.00067404883232
84 *20:4 0.0013056569565
85 *20:3 0
*RES
111 *20:1 *20:2 2.276785714285714
112 input15:A *20:3 6.982142857142857
113 *20:4 *20:5 2.342166666666667
114 *20:1 *20:4 0
115 *20:3 *20:2 0
116 input15:A input15:A 0
*END

*D_NET *21 0.00130378370956
*CONN
*P wb_dat_o[0] O
*I output24:X O
*CAP
86 *21:1 0.0006749795133
87 *21:3 0.00012830406688
88 *21:4 0.0005005001293800001
89 output24:X 0
*RES
117 *21:1 *21:2 1.1891
118 *21:3 output24:X 1.232142857142857
119 *21:4 *21:5 5.616071428571428
120 *21:4 *21:1 0
121 *21:3 *21:5 0
122 output24:X output24:X 0
*END

*D_NET *22 0.00058054129944
*CONN
*P wb_dat_o[1] O
*I output25:X O
*CAP
90 *22:1 2.3813806740000006e-05
91 *22:3 0.0005567274927
92 output25:X 0
93 *22:2 0
*RES
123 *22:1 *22:2 0.15178571428571427
124 *22:3 *22:4 0.9729000000000001
125 output25:X output25:X 0
126 output25:X *22:1 0
127 *22:2 *22:4 0
*END

*D_NET *23 0.0006858781437400002
*CONN
*P wb_dat_o[2] O
*I output26:X O
*CAP
94 *23:1 0.0006858781437400002
95 output26:X 0
*RES
128 *23:1 *23:2 7.741071428571428
129 output26:X output26:X 0
130 output26:X *23:1 0
*END

*D_NET *24 0.00058054129944
*CONN
*P wb_dat_o[3] O
*I output27:X O
*CAP
96 *24:1 0.0005567274927
97 *24:3 2.3813806740000006e-05
98 output27:X 0
*RES
131 *24:1 *24:2 0.9729000000000001
132 *24:3 *24:4 0.15178571428571427
133 *24:3 *24:2 0
134 output27:X output27:X 0
135 output27:X *24:4 0
*END

*D_NET *25 0.00046228927884
*CONN
*P wb_dat_o[4] O
*I output28:X O
*CAP
99 *25:1 0.00043847547209999995
100 *25:3 2.3813806740000006e-05
101 output28:X 0
*RES
136 *25:1 *25:2 0.7567
137 *25:3 *25:4 0.15178571428571427
138 *25:3 *25:2 0
139 output28:X output28:X 0
140 output28:X *25:4 0
*END

*D_NET *26 0.00099510767742
*CONN
*P wb_dat_o[5] O
*I output29:X O
*CAP
102 *26:1 0.00063291299678
103 *26:3 0.0003621946806399999
104 output29:X 0
*RES
141 *26:1 *26:2 7.133928571428571
142 *26:3 output29:X 3.6964285714285707
143 *26:3 *26:2 0
144 output29:X output29:X 0
*END

*D_NET *27 0.00066340482742
*CONN
*P wb_dat_o[6] O
*I output30:X O
*CAP
105 *27:1 0.00016946796088000002
106 *27:2 4.640188412000001e-05
107 *27:3 0.00044753498242
108 output30:X 0
*RES
145 *27:1 *27:2 1.8214285714285714
146 *27:2 *27:3 0.4107142857142857
147 *27:3 *27:4 5.008928571428571
148 output30:X output30:X 0
149 output30:X *27:4 0
*END

*D_NET *28 0.0009701092864600002
*CONN
*P wb_dat_o[7] O
*I output31:X O
*CAP
109 output31:X 0.00028423114272
110 *28:2 0.0006858781437400002
111 *28:1 0
*RES
150 output31:X *28:1 2.875
151 *28:2 *28:3 7.741071428571428
152 output31:X output31:X 0
153 *28:1 *28:2 0
*END

*D_NET *29 0.00063291299678
*CONN
*P wb_inta_o O
*I output32:X O
*CAP
112 *29:1 0.00063291299678
113 output32:X 0
*RES
154 *29:1 *29:2 7.133928571428571
155 output32:X output32:X 0
156 output32:X *29:2 0
*END

*D_NET *30 0.0008983321812
*CONN
*P wb_rst_i I
*I input16:A I
*CAP
114 *30:1 0.0005567274927
115 *30:3 0.00034160468850000003
116 input16:A 0
*RES
157 *30:1 *30:2 0.9729000000000001
158 *30:3 *30:4 3.7946428571428568
159 *30:3 *30:2 0
160 input16:A input16:A 0
161 input16:A *30:4 0
*END

*D_NET *31 0.0033233583770200005
*CONN
*P wb_stb_i I
*I input17:A I
*CAP
117 *31:1 0.0009332482446
118 *31:4 0.0015316477494400002
119 input17:A 4.017137184e-05
120 *31:5 0.00081829101114
121 *31:2 0
122 *31:3 0
*RES
162 *31:1 *31:2 8.625
163 *31:1 *31:3 73.19999999999999
164 *31:4 *31:3 16.017857142857142
165 input17:A *31:4 0.30357142857142855
166 *31:5 *31:6 9.25892857142857
167 *31:2 *31:6 0
168 *31:1 *31:1 0
169 *31:3 *31:3 0
170 input17:A input17:A 0
*END

*D_NET *32 0.0006205716796799999
*CONN
*P wb_we_i I
*I input18:A I
*CAP
123 *32:1 0.00010326152718000001
124 *32:3 0.0005173101524999999
125 input18:A 0
*RES
171 *32:1 *32:2 1.0624999999999998
172 *32:3 *32:4 0.9008333333333334
173 input18:A input18:A 0
174 input18:A *32:2 0
175 *32:1 *32:3 0
*END

*D_NET *33 0.0019013847172800003
*CONN
*I _1238_:D I
*I _1027_:Y O
*CAP
126 *33:1 0.00012949366976
127 _1238_:D 0.0005960852944
128 *33:4 0.0011758057531200002
129 *33:2 0
130 _1027_:Y 0
*RES
176 *33:1 *33:2 0.8214285714285714
177 *33:1 *33:3 0.30357142857142855
178 _1238_:D *33:3 6.160714285714286
179 *33:4 *33:5 13.357142857142856
180 *33:2 *33:5 0
181 _1238_:D _1238_:D 0
182 _1027_:Y _1027_:Y 0
183 _1027_:Y *33:4 0
*END

*D_NET *34 0.00016684334288000002
*CONN
*I _1241_:D I
*I _1022_:X O
*CAP
131 *34:1 0.00011650281392
132 *34:3 5.034052896000001e-05
133 _1241_:D 0
134 _1022_:X 0
*RES
184 *34:1 *34:2 1.2142857142857142
185 *34:3 _1241_:D 0.4107142857142857
186 _1241_:D _1241_:D 0
187 _1022_:X _1022_:X 0
188 _1022_:X *34:1 0
189 *34:3 *34:2 0
*END

*D_NET *35 0.00038679974604
*CONN
*I _1239_:D I
*I _1025_:X O
*CAP
135 _1025_:X 8.932229792e-05
136 *35:2 9.002024044000002e-05
137 *35:4 0.00020745720768000002
138 *35:1 0
139 *35:5 0
140 _1239_:D 0
*RES
190 _1025_:X *35:1 0.8214285714285714
191 *35:2 *35:3 0.9107142857142857
192 *35:4 *35:5 1.6428571428571428
193 *35:4 _1239_:D 0.30357142857142855
194 _1025_:X _1025_:X 0
195 *35:1 *35:2 0
196 *35:5 *35:3 0
197 _1239_:D _1239_:D 0
*END

*D_NET *36 0.0006515763134399999
*CONN
*I _1240_:D I
*I _1024_:X O
*CAP
141 *36:1 0.00032321291168
142 *36:2 0.00032836340175999997
143 _1024_:X 0
144 _1240_:D 0
*RES
198 *36:1 _1024_:X 3.2857142857142856
199 *36:2 *36:3 3.642857142857143
200 _1024_:X _1024_:X 0
201 *36:1 *36:2 0
202 _1240_:D _1240_:D 0
203 _1240_:D *36:3 0
*END

*D_NET *37 0.00024862031472
*CONN
*I _1234_:D I
*I _1163_:X O
*CAP
145 _1234_:D 0.0001321175008
146 *37:2 0.00011650281392
147 _1163_:X 0
148 *37:1 0
*RES
204 _1234_:D *37:1 1.2723214285714284
205 *37:2 *37:3 1.2142857142857142
206 _1163_:X _1163_:X 0
207 _1163_:X *37:2 0
208 *37:1 *37:3 0
209 _1234_:D _1234_:D 0
*END

*D_NET *38 0.005472374169160001
*CONN
*I _1237_:D I
*I _1021_:X O
*CAP
149 _1021_:X 0.0005960852944
150 *38:2 0.00028423114272
151 *38:3 0.004592057732040001
152 *38:1 0
153 _1237_:D 0
*RES
210 _1021_:X *38:1 6.160714285714286
211 *38:2 _1237_:D 2.875
212 *38:3 *38:4 52.51785714285714
213 *38:1 *38:4 0
214 _1021_:X _1021_:X 0
215 *38:2 *38:3 0
216 _1237_:D _1237_:D 0
*END

*D_NET *39 0.00025879025880000005
*CONN
*I _1246_:D I
*I _1000_:Y O
*CAP
154 *39:1 0.00016946796088000002
155 _1246_:D 8.932229792e-05
156 _1000_:Y 0
157 *39:3 0
*RES
217 *39:1 *39:2 1.8214285714285714
218 _1246_:D *39:3 0.8214285714285714
219 _1000_:Y _1000_:Y 0
220 _1000_:Y *39:1 0
221 *39:3 *39:2 0
222 _1246_:D _1246_:D 0
*END

*D_NET *40 0.0012282561999199999
*CONN
*I _1247_:D I
*I _0990_:X O
*CAP
158 *40:1 0.00059318913656
159 _1247_:D 0.00063506706336
160 *40:3 0
161 _0990_:X 0
*RES
223 *40:1 *40:2 6.678571428571428
224 _1247_:D *40:3 6.571428571428571
225 _1247_:D _1247_:D 0
226 *40:3 *40:1 0
227 _0990_:X _0990_:X 0
228 _0990_:X *40:2 0
*END

*D_NET *41 0.00061704709204
*CONN
*I _1248_:D I
*I _1019_:Y O
*CAP
162 *41:1 0.00056670656308
163 _1019_:Y 5.034052896000001e-05
164 _1248_:D 0
165 *41:3 0
*RES
229 *41:1 *41:2 6.374999999999999
230 _1019_:Y *41:3 0.4107142857142857
231 _1248_:D _1248_:D 0
232 _1248_:D *41:1 0
233 *41:3 *41:2 0
234 _1019_:Y _1019_:Y 0
*END

*D_NET *42 0.00063348413492
*CONN
*I _1249_:D I
*I _1013_:X O
*CAP
166 _1249_:D 0.00044015821855999997
167 *42:2 0.00014298538739999998
168 _1013_:X 5.034052896000001e-05
169 *42:1 0
170 *42:4 0
*RES
235 _1249_:D *42:1 4.517857142857142
236 *42:2 *42:3 1.5178571428571426
237 _1013_:X *42:4 0.4107142857142857
238 _1249_:D _1249_:D 0
239 *42:1 *42:2 0
240 *42:4 *42:3 0
241 _1013_:X _1013_:X 0
*END

*D_NET *43 0.0006736063393599999
*CONN
*I _1250_:D I
*I _1012_:X O
*CAP
171 _1250_:D 0.00055710352544
172 *43:2 0.00011650281392
173 _1012_:X 0
174 *43:1 0
*RES
242 _1250_:D *43:1 5.75
243 *43:2 *43:3 1.2142857142857142
244 _1012_:X _1012_:X 0
245 _1012_:X *43:3 0
246 *43:1 *43:2 0
247 _1250_:D _1250_:D 0
*END

*D_NET *44 0.00027128945428
*CONN
*I _1251_:D I
*I _0986_:X O
*CAP
175 *44:1 0.00012830406688
176 *44:2 0.00014298538739999998
177 _0986_:X 0
178 _1251_:D 0
*RES
248 *44:1 _0986_:X 1.232142857142857
249 *44:2 *44:3 1.5178571428571426
250 _0986_:X _0986_:X 0
251 *44:1 *44:2 0
252 _1251_:D _1251_:D 0
253 _1251_:D *44:3 0
*END

*D_NET *45 0.00063506706336
*CONN
*I _1242_:D I
*I _1017_:X O
*CAP
179 _1017_:X 0.00063506706336
180 _1242_:D 0
*RES
254 _1017_:X _1242_:D 6.571428571428571
255 _1242_:D _1242_:D 0
256 _1017_:X _1017_:X 0
*END

*D_NET *46 0.0004536991036
*CONN
*I _1243_:D I
*I _1009_:X O
*CAP
181 *46:1 0.00016946796088000002