* NGSPICE file created from i2c_master_top.ext - technology: sky130A

* Black-box entry subcircuit for sky130_fd_sc_hd__decap_4 abstract view
.subckt sky130_fd_sc_hd__decap_4 VGND VNB VPB VPWR
.ends

* Black-box entry subcircuit for sky130_fd_sc_hd__fill_1 abstract view
.subckt sky130_fd_sc_hd__fill_1 VGND VNB VPB VPWR
.ends

* Black-box entry subcircuit for sky130_fd_sc_hd__decap_6 abstract view
.subckt sky130_fd_sc_hd__decap_6 VGND VNB VPB VPWR
.ends

* Black-box entry subcircuit for sky130_fd_sc_hd__decap_12 abstract view
.subckt sky130_fd_sc_hd__decap_12 VGND VNB VPB VPWR
.ends

* Black-box entry subcircuit for sky130_fd_sc_hd__fill_2 abstract view
.subckt sky130_fd_sc_hd__fill_2 VGND VNB VPB VPWR
.ends

* Black-box entry subcircuit for sky130_fd_sc_hd__dfrtp_1 abstract view
.subckt sky130_fd_sc_hd__dfrtp_1 CLK D RESET_B VGND VNB VPB VPWR Q
.ends

* Black-box entry subcircuit for sky130_fd_sc_hd__decap_8 abstract view
.subckt sky130_fd_sc_hd__decap_8 VGND VNB VPB VPWR
.ends

* Black-box entry subcircuit for sky130_fd_sc_hd__and3_1 abstract view
.subckt sky130_fd_sc_hd__and3_1 A B C VGND VNB VPB VPWR X
.ends

* Black-box entry subcircuit for sky130_fd_sc_hd__or4_4 abstract view
.subckt sky130_fd_sc_hd__or4_4 A B C D VGND VNB VPB VPWR X
.ends

* Black-box entry subcircuit for sky130_fd_sc_hd__dfstp_1 abstract view
.subckt sky130_fd_sc_hd__dfstp_1 CLK D SET_B VGND VNB VPB VPWR Q
.ends

* Black-box entry subcircuit for sky130_fd_sc_hd__mux2_1 abstract view
.subckt sky130_fd_sc_hd__mux2_1 A0 A1 S VGND VNB VPB VPWR X
.ends

* Black-box entry subcircuit for sky130_fd_sc_hd__nand2_2 abstract view
.subckt sky130_fd_sc_hd__nand2_2 A B VGND VNB VPB VPWR Y
.ends

* Black-box entry subcircuit for sky130_fd_sc_hd__clkbuf_2 abstract view
.subckt sky130_fd_sc_hd__clkbuf_2 A VGND VNB VPB VPWR X
.ends

* Black-box entry subcircuit for sky130_fd_sc_hd__clkbuf_1 abstract view
.subckt sky130_fd_sc_hd__clkbuf_1 A VGND VNB VPB VPWR X
.ends

* Black-box entry subcircuit for sky130_fd_sc_hd__or2_4 abstract view
.subckt sky130_fd_sc_hd__or2_4 A B VGND VNB VPB VPWR X
.ends

* Black-box entry subcircuit for sky130_fd_sc_hd__dfxtp_1 abstract view
.subckt sky130_fd_sc_hd__dfxtp_1 CLK D VGND VNB VPB VPWR Q
.ends

* Black-box entry subcircuit for sky130_fd_sc_hd__nor2_1 abstract view
.subckt sky130_fd_sc_hd__nor2_1 A B VGND VNB VPB VPWR Y
.ends

* Black-box entry subcircuit for sky130_fd_sc_hd__or2_1 abstract view
.subckt sky130_fd_sc_hd__or2_1 A B VGND VNB VPB VPWR X
.ends

* Black-box entry subcircuit for sky130_fd_sc_hd__nand2_1 abstract view
.subckt sky130_fd_sc_hd__nand2_1 A B VGND VNB VPB VPWR Y
.ends

* Black-box entry subcircuit for sky130_fd_sc_hd__a221o_1 abstract view
.subckt sky130_fd_sc_hd__a221o_1 A1 A2 B1 B2 C1 VGND VNB VPB VPWR X
.ends

* Black-box entry subcircuit for sky130_fd_sc_hd__inv_2 abstract view
.subckt sky130_fd_sc_hd__inv_2 A VGND VNB VPB VPWR Y
.ends

* Black-box entry subcircuit for sky130_fd_sc_hd__a22o_1 abstract view
.subckt sky130_fd_sc_hd__a22o_1 A1 A2 B1 B2 VGND VNB VPB VPWR X
.ends

* Black-box entry subcircuit for sky130_fd_sc_hd__tapvpwrvgnd_1 abstract view
.subckt sky130_fd_sc_hd__tapvpwrvgnd_1 VGND VPWR
.ends

* Black-box entry subcircuit for sky130_fd_sc_hd__o311a_1 abstract view
.subckt sky130_fd_sc_hd__o311a_1 A1 A2 A3 B1 C1 VGND VNB VPB VPWR X
.ends

* Black-box entry subcircuit for sky130_fd_sc_hd__decap_3 abstract view
.subckt sky130_fd_sc_hd__decap_3 VGND VNB VPB VPWR
.ends

* Black-box entry subcircuit for sky130_fd_sc_hd__dfstp_2 abstract view
.subckt sky130_fd_sc_hd__dfstp_2 CLK D SET_B VGND VNB VPB VPWR Q
.ends

* Black-box entry subcircuit for sky130_fd_sc_hd__dfrtp_4 abstract view
.subckt sky130_fd_sc_hd__dfrtp_4 CLK D RESET_B VGND VNB VPB VPWR Q
.ends

* Black-box entry subcircuit for sky130_fd_sc_hd__a2bb2o_1 abstract view
.subckt sky130_fd_sc_hd__a2bb2o_1 A1_N A2_N B1 B2 VGND VNB VPB VPWR X
.ends

* Black-box entry subcircuit for sky130_fd_sc_hd__a21bo_1 abstract view
.subckt sky130_fd_sc_hd__a21bo_1 A1 A2 B1_N VGND VNB VPB VPWR X
.ends

* Black-box entry subcircuit for sky130_fd_sc_hd__buf_1 abstract view
.subckt sky130_fd_sc_hd__buf_1 A VGND VNB VPB VPWR X
.ends

* Black-box entry subcircuit for sky130_fd_sc_hd__or3_1 abstract view
.subckt sky130_fd_sc_hd__or3_1 A B C VGND VNB VPB VPWR X
.ends

* Black-box entry subcircuit for sky130_fd_sc_hd__buf_8 abstract view
.subckt sky130_fd_sc_hd__buf_8 A VGND VNB VPB VPWR X
.ends

* Black-box entry subcircuit for sky130_fd_sc_hd__or2_2 abstract view
.subckt sky130_fd_sc_hd__or2_2 A B VGND VNB VPB VPWR X
.ends

* Black-box entry subcircuit for sky130_fd_sc_hd__o21a_1 abstract view
.subckt sky130_fd_sc_hd__o21a_1 A1 A2 B1 VGND VNB VPB VPWR X
.ends

* Black-box entry subcircuit for sky130_fd_sc_hd__buf_2 abstract view
.subckt sky130_fd_sc_hd__buf_2 A VGND VNB VPB VPWR X
.ends

* Black-box entry subcircuit for sky130_fd_sc_hd__o22ai_1 abstract view
.subckt sky130_fd_sc_hd__o22ai_1 A1 A2 B1 B2 VGND VNB VPB VPWR Y
.ends

* Black-box entry subcircuit for sky130_fd_sc_hd__or3_4 abstract view
.subckt sky130_fd_sc_hd__or3_4 A B C VGND VNB VPB VPWR X
.ends

* Black-box entry subcircuit for sky130_fd_sc_hd__a21oi_1 abstract view
.subckt sky130_fd_sc_hd__a21oi_1 A1 A2 B1 VGND VNB VPB VPWR Y
.ends

* Black-box entry subcircuit for sky130_fd_sc_hd__o221ai_2 abstract view
.subckt sky130_fd_sc_hd__o221ai_2 A1 A2 B1 B2 C1 VGND VNB VPB VPWR Y
.ends

* Black-box entry subcircuit for sky130_fd_sc_hd__a221oi_2 abstract view
.subckt sky130_fd_sc_hd__a221oi_2 A1 A2 B1 B2 C1 VGND VNB VPB VPWR Y
.ends

* Black-box entry subcircuit for sky130_fd_sc_hd__o32a_1 abstract view
.subckt sky130_fd_sc_hd__o32a_1 A1 A2 A3 B1 B2 VGND VNB VPB VPWR X
.ends

* Black-box entry subcircuit for sky130_fd_sc_hd__and3b_1 abstract view
.subckt sky130_fd_sc_hd__and3b_1 A_N B C VGND VNB VPB VPWR X
.ends

* Black-box entry subcircuit for sky130_fd_sc_hd__a32o_1 abstract view
.subckt sky130_fd_sc_hd__a32o_1 A1 A2 A3 B1 B2 VGND VNB VPB VPWR X
.ends

* Black-box entry subcircuit for sky130_fd_sc_hd__buf_6 abstract view
.subckt sky130_fd_sc_hd__buf_6 A VGND VNB VPB VPWR X
.ends

* Black-box entry subcircuit for sky130_fd_sc_hd__o221a_1 abstract view
.subckt sky130_fd_sc_hd__o221a_1 A1 A2 B1 B2 C1 VGND VNB VPB VPWR X
.ends

* Black-box entry subcircuit for sky130_fd_sc_hd__o221ai_1 abstract view
.subckt sky130_fd_sc_hd__o221ai_1 A1 A2 B1 B2 C1 VGND VNB VPB VPWR Y
.ends

* Black-box entry subcircuit for sky130_fd_sc_hd__o221ai_4 abstract view
.subckt sky130_fd_sc_hd__o221ai_4 A1 A2 B1 B2 C1 VGND VNB VPB VPWR Y
.ends

* Black-box entry subcircuit for sky130_fd_sc_hd__o22ai_2 abstract view
.subckt sky130_fd_sc_hd__o22ai_2 A1 A2 B1 B2 VGND VNB VPB VPWR Y
.ends

* Black-box entry subcircuit for sky130_fd_sc_hd__a21boi_1 abstract view
.subckt sky130_fd_sc_hd__a21boi_1 A1 A2 B1_N VGND VNB VPB VPWR Y
.ends

* Black-box entry subcircuit for sky130_fd_sc_hd__o211a_1 abstract view
.subckt sky130_fd_sc_hd__o211a_1 A1 A2 B1 C1 VGND VNB VPB VPWR X
.ends

* Black-box entry subcircuit for sky130_fd_sc_hd__o22a_1 abstract view
.subckt sky130_fd_sc_hd__o22a_1 A1 A2 B1 B2 VGND VNB VPB VPWR X
.ends

* Black-box entry subcircuit for sky130_fd_sc_hd__o21ai_1 abstract view
.subckt sky130_fd_sc_hd__o21ai_1 A1 A2 B1 VGND VNB VPB VPWR Y
.ends

* Black-box entry subcircuit for sky130_fd_sc_hd__o211ai_1 abstract view
.subckt sky130_fd_sc_hd__o211ai_1 A1 A2 B1 C1 VGND VNB VPB VPWR Y
.ends

* Black-box entry subcircuit for sky130_fd_sc_hd__clkbuf_8 abstract view
.subckt sky130_fd_sc_hd__clkbuf_8 A VGND VNB VPB VPWR X
.ends

* Black-box entry subcircuit for sky130_fd_sc_hd__or3b_2 abstract view
.subckt sky130_fd_sc_hd__or3b_2 A B C_N VGND VNB VPB VPWR X
.ends

* Black-box entry subcircuit for sky130_fd_sc_hd__nor2b_1 abstract view
.subckt sky130_fd_sc_hd__nor2b_1 A B_N VGND VNB VPB VPWR Y
.ends

* Black-box entry subcircuit for sky130_fd_sc_hd__dfrtp_2 abstract view
.subckt sky130_fd_sc_hd__dfrtp_2 CLK D RESET_B VGND VNB VPB VPWR Q
.ends

* Black-box entry subcircuit for sky130_fd_sc_hd__nor3_1 abstract view
.subckt sky130_fd_sc_hd__nor3_1 A B C VGND VNB VPB VPWR Y
.ends

* Black-box entry subcircuit for sky130_fd_sc_hd__a21o_1 abstract view
.subckt sky130_fd_sc_hd__a21o_1 A1 A2 B1 VGND VNB VPB VPWR X
.ends

* Black-box entry subcircuit for sky130_fd_sc_hd__buf_4 abstract view
.subckt sky130_fd_sc_hd__buf_4 A VGND VNB VPB VPWR X
.ends

* Black-box entry subcircuit for sky130_fd_sc_hd__a211o_1 abstract view
.subckt sky130_fd_sc_hd__a211o_1 A1 A2 B1 C1 VGND VNB VPB VPWR X
.ends

* Black-box entry subcircuit for sky130_fd_sc_hd__nor4_2 abstract view
.subckt sky130_fd_sc_hd__nor4_2 A B C D VGND VNB VPB VPWR Y
.ends

* Black-box entry subcircuit for sky130_fd_sc_hd__a21oi_2 abstract view
.subckt sky130_fd_sc_hd__a21oi_2 A1 A2 B1 VGND VNB VPB VPWR Y
.ends

* Black-box entry subcircuit for sky130_fd_sc_hd__clkbuf_4 abstract view
.subckt sky130_fd_sc_hd__clkbuf_4 A VGND VNB VPB VPWR X
.ends

* Black-box entry subcircuit for sky130_fd_sc_hd__and4_1 abstract view
.subckt sky130_fd_sc_hd__and4_1 A B C D VGND VNB VPB VPWR X
.ends

* Black-box entry subcircuit for sky130_fd_sc_hd__a22oi_1 abstract view
.subckt sky130_fd_sc_hd__a22oi_1 A1 A2 B1 B2 VGND VNB VPB VPWR Y
.ends

* Black-box entry subcircuit for sky130_fd_sc_hd__a2111o_1 abstract view
.subckt sky130_fd_sc_hd__a2111o_1 A1 A2 B1 C1 D1 VGND VNB VPB VPWR X
.ends

* Black-box entry subcircuit for sky130_fd_sc_hd__a21oi_4 abstract view
.subckt sky130_fd_sc_hd__a21oi_4 A1 A2 B1 VGND VNB VPB VPWR Y
.ends

* Black-box entry subcircuit for sky130_fd_sc_hd__a311o_4 abstract view
.subckt sky130_fd_sc_hd__a311o_4 A1 A2 A3 B1 C1 VGND VNB VPB VPWR X
.ends

* Black-box entry subcircuit for sky130_fd_sc_hd__o31a_1 abstract view
.subckt sky130_fd_sc_hd__o31a_1 A1 A2 A3 B1 VGND VNB VPB VPWR X
.ends

* Black-box entry subcircuit for sky130_fd_sc_hd__or3b_1 abstract view
.subckt sky130_fd_sc_hd__or3b_1 A B C_N VGND VNB VPB VPWR X
.ends

* Black-box entry subcircuit for sky130_fd_sc_hd__a31o_1 abstract view
.subckt sky130_fd_sc_hd__a31o_1 A1 A2 A3 B1 VGND VNB VPB VPWR X
.ends

* Black-box entry subcircuit for sky130_fd_sc_hd__conb_1 abstract view
.subckt sky130_fd_sc_hd__conb_1 VGND VNB VPB VPWR HI LO
.ends

* Black-box entry subcircuit for sky130_fd_sc_hd__a2bb2oi_1 abstract view
.subckt sky130_fd_sc_hd__a2bb2oi_1 A1_N A2_N B1 B2 VGND VNB VPB VPWR Y
.ends

* Black-box entry subcircuit for sky130_fd_sc_hd__o211ai_4 abstract view
.subckt sky130_fd_sc_hd__o211ai_4 A1 A2 B1 C1 VGND VNB VPB VPWR Y
.ends

* Black-box entry subcircuit for sky130_fd_sc_hd__and2_1 abstract view
.subckt sky130_fd_sc_hd__and2_1 A B VGND VNB VPB VPWR X
.ends

* Black-box entry subcircuit for sky130_fd_sc_hd__clkbuf_16 abstract view
.subckt sky130_fd_sc_hd__clkbuf_16 A VGND VNB VPB VPWR X
.ends

* Black-box entry subcircuit for sky130_fd_sc_hd__a41o_1 abstract view
.subckt sky130_fd_sc_hd__a41o_1 A1 A2 A3 A4 B1 VGND VNB VPB VPWR X
.ends

* Black-box entry subcircuit for sky130_fd_sc_hd__nand4b_4 abstract view
.subckt sky130_fd_sc_hd__nand4b_4 A_N B C D VGND VNB VPB VPWR Y
.ends

* Black-box entry subcircuit for sky130_fd_sc_hd__o2111a_1 abstract view
.subckt sky130_fd_sc_hd__o2111a_1 A1 A2 B1 C1 D1 VGND VNB VPB VPWR X
.ends

* Black-box entry subcircuit for sky130_fd_sc_hd__diode_2 abstract view
.subckt sky130_fd_sc_hd__diode_2 DIODE VGND VNB VPB VPWR
.ends

* Black-box entry subcircuit for sky130_fd_sc_hd__or3_2 abstract view
.subckt sky130_fd_sc_hd__or3_2 A B C VGND VNB VPB VPWR X
.ends

* Black-box entry subcircuit for sky130_fd_sc_hd__or4b_4 abstract view
.subckt sky130_fd_sc_hd__or4b_4 A B C D_N VGND VNB VPB VPWR X
.ends

.subckt i2c_master_top arst_i scl_pad_i scl_pad_o scl_padoen_o sda_pad_i sda_pad_o
+ sda_padoen_o wb_ack_o wb_adr_i[0] wb_adr_i[1] wb_adr_i[2] wb_clk_i wb_cyc_i wb_dat_i[0]
+ wb_dat_i[1] wb_dat_i[2] wb_dat_i[3] wb_dat_i[4] wb_dat_i[5] wb_dat_i[6] wb_dat_i[7]
+ wb_dat_o[0] wb_dat_o[1] wb_dat_o[2] wb_dat_o[3] wb_dat_o[4] wb_dat_o[5] wb_dat_o[6]
+ wb_dat_o[7] wb_inta_o wb_rst_i wb_stb_i wb_we_i VPWR VGND
XFILLER_39_266 VGND VGND VPWR VPWR sky130_fd_sc_hd__decap_4
XFILLER_36_19 VGND VGND VPWR VPWR sky130_fd_sc_hd__fill_1
XFILLER_22_144 VGND VGND VPWR VPWR sky130_fd_sc_hd__decap_6
XFILLER_45_269 VGND VGND VPWR VPWR sky130_fd_sc_hd__decap_12
XFILLER_13_100 VGND VGND VPWR VPWR sky130_fd_sc_hd__fill_2
XFILLER_13_133 VGND VGND VPWR VPWR sky130_fd_sc_hd__decap_4
XFILLER_26_30 VGND VGND VPWR VPWR sky130_fd_sc_hd__decap_4
XFILLER_42_95 VGND VGND VPWR VPWR sky130_fd_sc_hd__fill_1
XFILLER_9_115 VGND VGND VPWR VPWR sky130_fd_sc_hd__decap_4
XFILLER_13_155 VGND VGND VPWR VPWR sky130_fd_sc_hd__fill_1
X_1270_ _1347_/CLK _1270_/D repeater34/X VGND VGND VPWR VPWR _1270_/Q sky130_fd_sc_hd__dfrtp_1
XFILLER_36_258 VGND VGND VPWR VPWR sky130_fd_sc_hd__decap_6
XFILLER_36_225 VGND VGND VPWR VPWR sky130_fd_sc_hd__decap_4
XFILLER_36_214 VGND VGND VPWR VPWR sky130_fd_sc_hd__decap_8
X_0985_ _1370_/Q _1016_/B _0985_/C VGND VGND VPWR VPWR _0985_/X sky130_fd_sc_hd__and3_1
XFILLER_10_103 VGND VGND VPWR VPWR sky130_fd_sc_hd__fill_1
XFILLER_10_114 VGND VGND VPWR VPWR sky130_fd_sc_hd__decap_4
XFILLER_10_158 VGND VGND VPWR VPWR sky130_fd_sc_hd__fill_1
XFILLER_12_87 VGND VGND VPWR VPWR sky130_fd_sc_hd__decap_6
XFILLER_37_84 VGND VGND VPWR VPWR sky130_fd_sc_hd__decap_4
XFILLER_18_236 VGND VGND VPWR VPWR sky130_fd_sc_hd__decap_8
XFILLER_18_258 VGND VGND VPWR VPWR sky130_fd_sc_hd__decap_4
X_0770_ _1328_/Q _1327_/Q _0775_/B _0796_/A VGND VGND VPWR VPWR _0784_/D sky130_fd_sc_hd__or4_4
X_1322_ _1329_/CLK _1322_/D repeater33/X VGND VGND VPWR VPWR _1322_/Q sky130_fd_sc_hd__dfstp_1
X_1253_ _1379_/CLK _1253_/D repeater37/X VGND VGND VPWR VPWR _1253_/Q sky130_fd_sc_hd__dfrtp_1
X_1184_ _1319_/Q _1300_/Q _1281_/Q VGND VGND VPWR VPWR _1184_/X sky130_fd_sc_hd__mux2_1
XFILLER_32_250 VGND VGND VPWR VPWR sky130_fd_sc_hd__decap_6
X_0968_ _0968_/A _0968_/B VGND VGND VPWR VPWR _0969_/A sky130_fd_sc_hd__nand2_2
X_0899_ _1248_/Q VGND VGND VPWR VPWR _1110_/A sky130_fd_sc_hd__clkbuf_2
XFILLER_30_209 VGND VGND VPWR VPWR sky130_fd_sc_hd__decap_6
XFILLER_23_250 VGND VGND VPWR VPWR sky130_fd_sc_hd__decap_4
XFILLER_23_75 VGND VGND VPWR VPWR sky130_fd_sc_hd__decap_4
XFILLER_0_46 VGND VGND VPWR VPWR sky130_fd_sc_hd__decap_4
XFILLER_9_99 VGND VGND VPWR VPWR sky130_fd_sc_hd__decap_4
X_0822_ _0822_/A VGND VGND VPWR VPWR _0823_/B sky130_fd_sc_hd__clkbuf_1
X_0753_ _1336_/Q _1335_/Q _1338_/Q _1337_/Q VGND VGND VPWR VPWR _0791_/D sky130_fd_sc_hd__or4_4
X_0684_ _0684_/A _0795_/A VGND VGND VPWR VPWR _1079_/B sky130_fd_sc_hd__or2_4
X_1305_ _1305_/CLK _1305_/D repeater35/X VGND VGND VPWR VPWR _1305_/Q sky130_fd_sc_hd__dfrtp_1
X_1236_ _1379_/CLK _1236_/D VGND VGND VPWR VPWR _1236_/Q sky130_fd_sc_hd__dfxtp_1
X_1098_ _1358_/Q _1098_/B VGND VGND VPWR VPWR _1098_/Y sky130_fd_sc_hd__nor2_1
X_1167_ _1167_/A _1257_/Q VGND VGND VPWR VPWR _1259_/D sky130_fd_sc_hd__or2_1
XFILLER_20_253 VGND VGND VPWR VPWR sky130_fd_sc_hd__decap_4
XFILLER_47_117 VGND VGND VPWR VPWR sky130_fd_sc_hd__decap_4
XFILLER_34_30 VGND VGND VPWR VPWR sky130_fd_sc_hd__decap_8
XFILLER_11_242 VGND VGND VPWR VPWR sky130_fd_sc_hd__decap_4
XFILLER_11_253 VGND VGND VPWR VPWR sky130_fd_sc_hd__decap_4
XFILLER_7_268 VGND VGND VPWR VPWR sky130_fd_sc_hd__decap_4
X_1021_ _1307_/Q _1051_/B _1241_/Q VGND VGND VPWR VPWR _1237_/D sky130_fd_sc_hd__and3_1
X_0805_ _0805_/A _0805_/B VGND VGND VPWR VPWR _0830_/A sky130_fd_sc_hd__nand2_1
X_0736_ _1345_/Q _1225_/S _1346_/Q _0733_/X _1167_/A VGND VGND VPWR VPWR _1346_/D
+ sky130_fd_sc_hd__a221o_1
X_0667_ _0667_/A VGND VGND VPWR VPWR _0667_/Y sky130_fd_sc_hd__inv_2
XFILLER_37_183 VGND VGND VPWR VPWR sky130_fd_sc_hd__decap_8
XFILLER_37_172 VGND VGND VPWR VPWR sky130_fd_sc_hd__decap_6
X_1219_ _1101_/Y _1288_/Q _1279_/D VGND VGND VPWR VPWR _1219_/X sky130_fd_sc_hd__mux2_1
XFILLER_4_205 VGND VGND VPWR VPWR sky130_fd_sc_hd__fill_1
XFILLER_20_87 VGND VGND VPWR VPWR sky130_fd_sc_hd__decap_8
XFILLER_43_197 VGND VGND VPWR VPWR sky130_fd_sc_hd__decap_4
XFILLER_13_3 VGND VGND VPWR VPWR sky130_fd_sc_hd__decap_8
XFILLER_19_172 VGND VGND VPWR VPWR sky130_fd_sc_hd__decap_6
XFILLER_34_175 VGND VGND VPWR VPWR sky130_fd_sc_hd__decap_4
XFILLER_34_142 VGND VGND VPWR VPWR sky130_fd_sc_hd__fill_1
X_1004_ _1110_/B _1016_/B _1015_/C VGND VGND VPWR VPWR _1004_/X sky130_fd_sc_hd__and3_1
X_0719_ _1207_/X _0713_/X _1349_/Q _0714_/X VGND VGND VPWR VPWR _1349_/D sky130_fd_sc_hd__a22o_1
XFILLER_31_53 VGND VGND VPWR VPWR sky130_fd_sc_hd__decap_4
Xoutput20 _1321_/Q VGND VGND VPWR VPWR scl_padoen_o sky130_fd_sc_hd__clkbuf_2
Xoutput31 _1233_/Q VGND VGND VPWR VPWR wb_dat_o[7] sky130_fd_sc_hd__clkbuf_2
XFILLER_31_123 VGND VGND VPWR VPWR sky130_fd_sc_hd__decap_4
XPHY_170 VGND VPWR sky130_fd_sc_hd__tapvpwrvgnd_1
XFILLER_31_178 VGND VGND VPWR VPWR sky130_fd_sc_hd__fill_1
XPHY_181 VGND VPWR sky130_fd_sc_hd__tapvpwrvgnd_1
XPHY_192 VGND VPWR sky130_fd_sc_hd__tapvpwrvgnd_1
XFILLER_39_223 VGND VGND VPWR VPWR sky130_fd_sc_hd__decap_4
XFILLER_22_123 VGND VGND VPWR VPWR sky130_fd_sc_hd__decap_8
XFILLER_22_156 VGND VGND VPWR VPWR sky130_fd_sc_hd__decap_6
XFILLER_26_42 VGND VGND VPWR VPWR sky130_fd_sc_hd__decap_4
XFILLER_26_53 VGND VGND VPWR VPWR sky130_fd_sc_hd__decap_4
XFILLER_26_75 VGND VGND VPWR VPWR sky130_fd_sc_hd__fill_2
XFILLER_42_74 VGND VGND VPWR VPWR sky130_fd_sc_hd__decap_4
XFILLER_42_30 VGND VGND VPWR VPWR sky130_fd_sc_hd__decap_4
XFILLER_44_270 VGND VGND VPWR VPWR sky130_fd_sc_hd__decap_8
X_0984_ _1368_/Q _1367_/Q _1369_/Q _0988_/A _1246_/Q VGND VGND VPWR VPWR _0985_/C
+ sky130_fd_sc_hd__o311a_1
XFILLER_8_171 VGND VGND VPWR VPWR sky130_fd_sc_hd__decap_4
XFILLER_47_19 VGND VGND VPWR VPWR sky130_fd_sc_hd__decap_3
XFILLER_27_215 VGND VGND VPWR VPWR sky130_fd_sc_hd__decap_4
XFILLER_35_270 VGND VGND VPWR VPWR sky130_fd_sc_hd__decap_4
XFILLER_10_148 VGND VGND VPWR VPWR sky130_fd_sc_hd__fill_1
XFILLER_12_11 VGND VGND VPWR VPWR sky130_fd_sc_hd__decap_4
XFILLER_12_99 VGND VGND VPWR VPWR sky130_fd_sc_hd__decap_4
XFILLER_37_96 VGND VGND VPWR VPWR sky130_fd_sc_hd__decap_4
XFILLER_18_226 VGND VGND VPWR VPWR sky130_fd_sc_hd__decap_4
XFILLER_33_229 VGND VGND VPWR VPWR sky130_fd_sc_hd__decap_4
XFILLER_5_141 VGND VGND VPWR VPWR sky130_fd_sc_hd__decap_4
Xclkbuf_4_12_0_wb_clk_i clkbuf_3_6_0_wb_clk_i/X VGND VGND VPWR VPWR _1373_/CLK sky130_fd_sc_hd__clkbuf_1
X_1321_ _1379_/CLK _1321_/D repeater40/X VGND VGND VPWR VPWR _1321_/Q sky130_fd_sc_hd__dfstp_2
X_1252_ _1379_/CLK _1252_/D repeater37/X VGND VGND VPWR VPWR _1252_/Q sky130_fd_sc_hd__dfrtp_4
X_1183_ _1318_/Q _1299_/Q _1281_/Q VGND VGND VPWR VPWR _1183_/X sky130_fd_sc_hd__mux2_1
X_0967_ _0968_/B VGND VGND VPWR VPWR _0967_/X sky130_fd_sc_hd__clkbuf_2
X_0898_ _0893_/X _0897_/Y _1310_/Q _0876_/X VGND VGND VPWR VPWR _1310_/D sky130_fd_sc_hd__a2bb2o_1
XFILLER_15_229 VGND VGND VPWR VPWR sky130_fd_sc_hd__decap_4
XFILLER_2_199 VGND VGND VPWR VPWR sky130_fd_sc_hd__fill_1
XFILLER_2_144 VGND VGND VPWR VPWR sky130_fd_sc_hd__decap_4
XFILLER_0_25 VGND VGND VPWR VPWR sky130_fd_sc_hd__decap_4
X_0752_ _1334_/Q _1333_/Q _1332_/Q _1331_/Q VGND VGND VPWR VPWR _0776_/A sky130_fd_sc_hd__or4_4
X_0821_ _1336_/Q _1335_/Q _0821_/C _0858_/D VGND VGND VPWR VPWR _0822_/A sky130_fd_sc_hd__or4_4
XFILLER_43_3 VGND VGND VPWR VPWR sky130_fd_sc_hd__decap_4
X_0683_ _1257_/Q VGND VGND VPWR VPWR _1038_/A sky130_fd_sc_hd__inv_2
X_1304_ _1366_/CLK _1304_/D repeater34/X VGND VGND VPWR VPWR _1304_/Q sky130_fd_sc_hd__dfrtp_1
X_1166_ _1257_/Q _1166_/B VGND VGND VPWR VPWR _1280_/D sky130_fd_sc_hd__nor2_1
X_1235_ _1376_/CLK _1321_/Q VGND VGND VPWR VPWR _1235_/Q sky130_fd_sc_hd__dfxtp_1
X_1097_ _1357_/Q _1096_/B _1098_/B VGND VGND VPWR VPWR _1097_/X sky130_fd_sc_hd__a21bo_1
XFILLER_34_20 VGND VGND VPWR VPWR sky130_fd_sc_hd__decap_8
XFILLER_18_54 VGND VGND VPWR VPWR sky130_fd_sc_hd__decap_6
XFILLER_18_65 VGND VGND VPWR VPWR sky130_fd_sc_hd__decap_4
XFILLER_18_87 VGND VGND VPWR VPWR sky130_fd_sc_hd__decap_4
X_1020_ _1172_/A VGND VGND VPWR VPWR _1051_/B sky130_fd_sc_hd__buf_1
XFILLER_46_173 VGND VGND VPWR VPWR sky130_fd_sc_hd__decap_8
X_0735_ _1346_/Q _1225_/S _1347_/Q _0733_/X _1167_/A VGND VGND VPWR VPWR _1347_/D
+ sky130_fd_sc_hd__a221o_1
X_0804_ _1334_/Q _0804_/B _0804_/C VGND VGND VPWR VPWR _0805_/B sky130_fd_sc_hd__or3_1
X_0666_ _0949_/A VGND VGND VPWR VPWR _0737_/A sky130_fd_sc_hd__clkbuf_2
XFILLER_37_195 VGND VGND VPWR VPWR sky130_fd_sc_hd__decap_4
X_1218_ _1099_/X _1287_/Q _1279_/D VGND VGND VPWR VPWR _1218_/X sky130_fd_sc_hd__mux2_1
X_1149_ _1238_/Q VGND VGND VPWR VPWR _1149_/Y sky130_fd_sc_hd__inv_2
XFILLER_20_11 VGND VGND VPWR VPWR sky130_fd_sc_hd__decap_4
XFILLER_29_97 VGND VGND VPWR VPWR sky130_fd_sc_hd__fill_1
XFILLER_29_64 VGND VGND VPWR VPWR sky130_fd_sc_hd__fill_1
XFILLER_29_53 VGND VGND VPWR VPWR sky130_fd_sc_hd__decap_4
XFILLER_29_31 VGND VGND VPWR VPWR sky130_fd_sc_hd__decap_4
XFILLER_43_165 VGND VGND VPWR VPWR sky130_fd_sc_hd__decap_6
XFILLER_43_121 VGND VGND VPWR VPWR sky130_fd_sc_hd__fill_1
XFILLER_43_110 VGND VGND VPWR VPWR sky130_fd_sc_hd__decap_4
XFILLER_28_162 VGND VGND VPWR VPWR sky130_fd_sc_hd__decap_8
XFILLER_6_68 VGND VGND VPWR VPWR sky130_fd_sc_hd__decap_4
XFILLER_3_261 VGND VGND VPWR VPWR sky130_fd_sc_hd__decap_12
XFILLER_34_110 VGND VGND VPWR VPWR sky130_fd_sc_hd__decap_4
X_1003_ _1003_/A VGND VGND VPWR VPWR _1015_/C sky130_fd_sc_hd__inv_2
X_0718_ _1211_/X _0713_/X _1350_/Q _0714_/X VGND VGND VPWR VPWR _1350_/D sky130_fd_sc_hd__a22o_1
X_0649_ _0649_/A VGND VGND VPWR VPWR _0651_/B sky130_fd_sc_hd__inv_2
XFILLER_15_44 VGND VGND VPWR VPWR sky130_fd_sc_hd__fill_2
XFILLER_25_176 VGND VGND VPWR VPWR sky130_fd_sc_hd__fill_1
XFILLER_15_77 VGND VGND VPWR VPWR sky130_fd_sc_hd__decap_4
Xoutput21 _1175_/LO VGND VGND VPWR VPWR sda_pad_o sky130_fd_sc_hd__clkbuf_2
XFILLER_31_98 VGND VGND VPWR VPWR sky130_fd_sc_hd__decap_8
XFILLER_0_220 VGND VGND VPWR VPWR sky130_fd_sc_hd__decap_4
Xoutput32 _1237_/Q VGND VGND VPWR VPWR wb_inta_o sky130_fd_sc_hd__clkbuf_2
XFILLER_0_231 VGND VGND VPWR VPWR sky130_fd_sc_hd__fill_1
XFILLER_0_242 VGND VGND VPWR VPWR sky130_fd_sc_hd__decap_12
XFILLER_31_135 VGND VGND VPWR VPWR sky130_fd_sc_hd__decap_4
XPHY_160 VGND VPWR sky130_fd_sc_hd__tapvpwrvgnd_1
XPHY_171 VGND VPWR sky130_fd_sc_hd__tapvpwrvgnd_1
XFILLER_16_198 VGND VGND VPWR VPWR sky130_fd_sc_hd__fill_2
XPHY_182 VGND VPWR sky130_fd_sc_hd__tapvpwrvgnd_1
XPHY_193 VGND VPWR sky130_fd_sc_hd__tapvpwrvgnd_1
XFILLER_9_128 VGND VGND VPWR VPWR sky130_fd_sc_hd__decap_6
XFILLER_13_179 VGND VGND VPWR VPWR sky130_fd_sc_hd__decap_4
XFILLER_26_87 VGND VGND VPWR VPWR sky130_fd_sc_hd__decap_6
XFILLER_26_98 VGND VGND VPWR VPWR sky130_fd_sc_hd__decap_4
XFILLER_3_58 VGND VGND VPWR VPWR sky130_fd_sc_hd__decap_4
XFILLER_36_238 VGND VGND VPWR VPWR sky130_fd_sc_hd__decap_6
Xrepeater40 input1/X VGND VGND VPWR VPWR repeater40/X sky130_fd_sc_hd__buf_8
X_0983_ _1284_/Q VGND VGND VPWR VPWR _0988_/A sky130_fd_sc_hd__inv_2
XFILLER_42_208 VGND VGND VPWR VPWR sky130_fd_sc_hd__decap_6
XFILLER_6_109 VGND VGND VPWR VPWR sky130_fd_sc_hd__decap_4
XFILLER_18_216 VGND VGND VPWR VPWR sky130_fd_sc_hd__fill_1
XFILLER_26_271 VGND VGND VPWR VPWR sky130_fd_sc_hd__decap_8
XFILLER_41_241 VGND VGND VPWR VPWR sky130_fd_sc_hd__decap_6
X_1320_ _1368_/CLK _1320_/D repeater36/X VGND VGND VPWR VPWR _1320_/Q sky130_fd_sc_hd__dfrtp_4
XFILLER_5_186 VGND VGND VPWR VPWR sky130_fd_sc_hd__decap_4
X_1182_ _1317_/Q _1298_/Q _1281_/Q VGND VGND VPWR VPWR _1182_/X sky130_fd_sc_hd__mux2_1
X_1251_ _1340_/CLK _1251_/D repeater36/X VGND VGND VPWR VPWR _1251_/Q sky130_fd_sc_hd__dfrtp_1
XFILLER_32_241 VGND VGND VPWR VPWR sky130_fd_sc_hd__decap_4
XFILLER_24_208 VGND VGND VPWR VPWR sky130_fd_sc_hd__decap_4
X_0897_ _0897_/A _1281_/Q VGND VGND VPWR VPWR _0897_/Y sky130_fd_sc_hd__nor2_1
X_0966_ _0966_/A _1121_/A VGND VGND VPWR VPWR _0968_/B sky130_fd_sc_hd__or2_2
XFILLER_23_11 VGND VGND VPWR VPWR sky130_fd_sc_hd__fill_1
XFILLER_23_241 VGND VGND VPWR VPWR sky130_fd_sc_hd__decap_4
XFILLER_3_3 VGND VGND VPWR VPWR sky130_fd_sc_hd__decap_12
XFILLER_0_15 VGND VGND VPWR VPWR sky130_fd_sc_hd__decap_6
XFILLER_0_59 VGND VGND VPWR VPWR sky130_fd_sc_hd__decap_4
X_0751_ _1324_/Q _1323_/Q _1326_/Q _1325_/Q VGND VGND VPWR VPWR _0775_/B sky130_fd_sc_hd__or4_4
X_0820_ _0820_/A _1337_/Q VGND VGND VPWR VPWR _0821_/C sky130_fd_sc_hd__or2_1
X_1303_ _1305_/CLK _1303_/D repeater35/X VGND VGND VPWR VPWR _1303_/Q sky130_fd_sc_hd__dfrtp_1
XFILLER_36_3 VGND VGND VPWR VPWR sky130_fd_sc_hd__decap_4
X_0682_ _1280_/Q VGND VGND VPWR VPWR _0697_/A sky130_fd_sc_hd__inv_2
X_1234_ _1351_/CLK _1234_/D VGND VGND VPWR VPWR _1234_/Q sky130_fd_sc_hd__dfxtp_1
X_1096_ _1357_/Q _1096_/B VGND VGND VPWR VPWR _1098_/B sky130_fd_sc_hd__or2_1
X_1165_ _1164_/Y _1235_/Q _0697_/A VGND VGND VPWR VPWR _1166_/B sky130_fd_sc_hd__o21a_1
XFILLER_20_233 VGND VGND VPWR VPWR sky130_fd_sc_hd__decap_6
XFILLER_20_244 VGND VGND VPWR VPWR sky130_fd_sc_hd__decap_4
X_0949_ _0949_/A VGND VGND VPWR VPWR _0949_/X sky130_fd_sc_hd__buf_1
XFILLER_20_277 VGND VGND VPWR VPWR sky130_fd_sc_hd__decap_4
XFILLER_34_87 VGND VGND VPWR VPWR sky130_fd_sc_hd__decap_4
XFILLER_11_277 VGND VGND VPWR VPWR sky130_fd_sc_hd__decap_4
XFILLER_46_152 VGND VGND VPWR VPWR sky130_fd_sc_hd__fill_1
X_0734_ _0893_/A VGND VGND VPWR VPWR _1167_/A sky130_fd_sc_hd__buf_2
X_0803_ _1333_/Q VGND VGND VPWR VPWR _0804_/B sky130_fd_sc_hd__inv_2
X_0665_ _0987_/B _0647_/A _0647_/Y _0664_/X VGND VGND VPWR VPWR _1367_/D sky130_fd_sc_hd__o22ai_1
X_1079_ _1176_/X _1079_/B VGND VGND VPWR VPWR _1274_/D sky130_fd_sc_hd__nor2_1
X_1148_ _1318_/Q VGND VGND VPWR VPWR _1148_/Y sky130_fd_sc_hd__inv_2
X_1217_ _1091_/Y _1376_/Q _1279_/D VGND VGND VPWR VPWR _1217_/X sky130_fd_sc_hd__mux2_1
XFILLER_20_56 VGND VGND VPWR VPWR sky130_fd_sc_hd__decap_4
XFILLER_20_67 VGND VGND VPWR VPWR sky130_fd_sc_hd__decap_4
XFILLER_29_21 VGND VGND VPWR VPWR sky130_fd_sc_hd__decap_4
XPHY_320 VGND VPWR sky130_fd_sc_hd__tapvpwrvgnd_1
XFILLER_28_185 VGND VGND VPWR VPWR sky130_fd_sc_hd__decap_4
XFILLER_6_25 VGND VGND VPWR VPWR sky130_fd_sc_hd__decap_4
XFILLER_3_273 VGND VGND VPWR VPWR sky130_fd_sc_hd__decap_8
XFILLER_34_144 VGND VGND VPWR VPWR sky130_fd_sc_hd__decap_8
X_1002_ _1002_/A _1016_/D VGND VGND VPWR VPWR _1003_/A sky130_fd_sc_hd__or2_1
X_0717_ _1213_/X _0713_/X _1351_/Q _0714_/X VGND VGND VPWR VPWR _1351_/D sky130_fd_sc_hd__a22o_1
X_0648_ _0915_/A VGND VGND VPWR VPWR _1036_/B sky130_fd_sc_hd__buf_1
XFILLER_40_169 VGND VGND VPWR VPWR sky130_fd_sc_hd__decap_4
XFILLER_31_77 VGND VGND VPWR VPWR sky130_fd_sc_hd__fill_1
XFILLER_0_254 VGND VGND VPWR VPWR sky130_fd_sc_hd__decap_6
Xoutput22 _1322_/Q VGND VGND VPWR VPWR sda_padoen_o sky130_fd_sc_hd__clkbuf_2
XFILLER_16_144 VGND VGND VPWR VPWR sky130_fd_sc_hd__decap_4
XFILLER_16_166 VGND VGND VPWR VPWR sky130_fd_sc_hd__decap_4
XFILLER_31_169 VGND VGND VPWR VPWR sky130_fd_sc_hd__fill_2
XPHY_150 VGND VPWR sky130_fd_sc_hd__tapvpwrvgnd_1
XPHY_161 VGND VPWR sky130_fd_sc_hd__tapvpwrvgnd_1
XPHY_172 VGND VPWR sky130_fd_sc_hd__tapvpwrvgnd_1
XPHY_183 VGND VPWR sky130_fd_sc_hd__tapvpwrvgnd_1
XPHY_194 VGND VPWR sky130_fd_sc_hd__tapvpwrvgnd_1
XFILLER_30_191 VGND VGND VPWR VPWR sky130_fd_sc_hd__decap_8
XFILLER_26_11 VGND VGND VPWR VPWR sky130_fd_sc_hd__decap_4
XFILLER_42_87 VGND VGND VPWR VPWR sky130_fd_sc_hd__decap_8
XFILLER_42_21 VGND VGND VPWR VPWR sky130_fd_sc_hd__fill_1
XFILLER_13_147 VGND VGND VPWR VPWR sky130_fd_sc_hd__decap_8
XFILLER_3_15 VGND VGND VPWR VPWR sky130_fd_sc_hd__fill_2
XFILLER_12_180 VGND VGND VPWR VPWR sky130_fd_sc_hd__decap_4
X_0982_ _1002_/A VGND VGND VPWR VPWR _1115_/A sky130_fd_sc_hd__clkbuf_2
Xclkbuf_3_7_0_wb_clk_i clkbuf_0_wb_clk_i/X VGND VGND VPWR VPWR clkbuf_3_7_0_wb_clk_i/X
+ sky130_fd_sc_hd__clkbuf_1
XFILLER_10_139 VGND VGND VPWR VPWR sky130_fd_sc_hd__decap_4
XFILLER_37_76 VGND VGND VPWR VPWR sky130_fd_sc_hd__decap_4
XFILLER_5_110 VGND VGND VPWR VPWR sky130_fd_sc_hd__decap_4
XFILLER_5_154 VGND VGND VPWR VPWR sky130_fd_sc_hd__decap_4
X_1181_ _1316_/Q _1297_/Q _1281_/Q VGND VGND VPWR VPWR _1181_/X sky130_fd_sc_hd__mux2_1
X_1250_ _1340_/CLK _1250_/D repeater33/X VGND VGND VPWR VPWR _1250_/Q sky130_fd_sc_hd__dfrtp_1
X_0896_ _0892_/Y _0874_/X _0893_/X _0895_/Y VGND VGND VPWR VPWR _1311_/D sky130_fd_sc_hd__o22ai_1
X_0965_ input5/X _1116_/B input6/X VGND VGND VPWR VPWR _1121_/A sky130_fd_sc_hd__or3_4
XFILLER_15_209 VGND VGND VPWR VPWR sky130_fd_sc_hd__decap_8
X_1379_ _1379_/CLK _1379_/D repeater37/X VGND VGND VPWR VPWR _1379_/Q sky130_fd_sc_hd__dfrtp_4
XFILLER_23_67 VGND VGND VPWR VPWR sky130_fd_sc_hd__decap_4
XFILLER_23_275 VGND VGND VPWR VPWR sky130_fd_sc_hd__decap_6
XFILLER_9_25 VGND VGND VPWR VPWR sky130_fd_sc_hd__decap_4
XFILLER_9_58 VGND VGND VPWR VPWR sky130_fd_sc_hd__decap_8
XFILLER_14_242 VGND VGND VPWR VPWR sky130_fd_sc_hd__decap_4
XFILLER_14_253 VGND VGND VPWR VPWR sky130_fd_sc_hd__decap_4
XFILLER_14_275 VGND VGND VPWR VPWR sky130_fd_sc_hd__decap_6
X_0681_ _0681_/A VGND VGND VPWR VPWR _1364_/D sky130_fd_sc_hd__inv_2
X_0750_ _1328_/Q VGND VGND VPWR VPWR _0756_/B sky130_fd_sc_hd__inv_2
X_1233_ _1366_/CLK _1233_/D VGND VGND VPWR VPWR _1233_/Q sky130_fd_sc_hd__dfxtp_1
X_1302_ _1305_/CLK _1302_/D repeater35/X VGND VGND VPWR VPWR _1302_/Q sky130_fd_sc_hd__dfrtp_1
XFILLER_29_3 VGND VGND VPWR VPWR sky130_fd_sc_hd__fill_1
X_1095_ _1356_/Q _1094_/B _1096_/B VGND VGND VPWR VPWR _1095_/X sky130_fd_sc_hd__a21bo_1
X_1164_ _1321_/Q VGND VGND VPWR VPWR _1164_/Y sky130_fd_sc_hd__inv_2
X_0948_ _0948_/A VGND VGND VPWR VPWR _1298_/D sky130_fd_sc_hd__inv_2
XFILLER_20_201 VGND VGND VPWR VPWR sky130_fd_sc_hd__decap_4
X_0879_ _1172_/A VGND VGND VPWR VPWR _0879_/X sky130_fd_sc_hd__clkbuf_2
XFILLER_18_23 VGND VGND VPWR VPWR sky130_fd_sc_hd__decap_6
XFILLER_18_45 VGND VGND VPWR VPWR sky130_fd_sc_hd__decap_4
XFILLER_18_78 VGND VGND VPWR VPWR sky130_fd_sc_hd__decap_8
XFILLER_7_227 VGND VGND VPWR VPWR sky130_fd_sc_hd__fill_1
X_0802_ _0802_/A _1333_/Q _0804_/C VGND VGND VPWR VPWR _0805_/A sky130_fd_sc_hd__or3_1
X_0733_ _0733_/A VGND VGND VPWR VPWR _0733_/X sky130_fd_sc_hd__buf_1
XFILLER_6_271 VGND VGND VPWR VPWR sky130_fd_sc_hd__decap_8
X_0664_ _1036_/B _0664_/B _0966_/A VGND VGND VPWR VPWR _0664_/X sky130_fd_sc_hd__or3_1