*SPEF "IEEE 1481-1998"
*DESIGN "i2c_master_top"
*DATE "Wed Apr 07 14:30:28 2021"
*VENDOR "AUC CSCE Department"
*PROGRAM "SPEF Extractor"
*VERSION "1.0"
*DESIGN_FLOW "PIN_CAP NONE"
*DIVIDER /
*DELIMITER :
*BUS_DELIMITER []
*T_UNIT 1.00000 NS
*C_UNIT 1.00000 PF
*R_UNIT 1.00000 OHM
*L_UNIT 1.00000 HENRY


*NAME_MAP
*0 arst_i
*1 scl_pad_i
*2 scl_pad_o
*3 scl_padoen_o
*4 sda_pad_i
*5 sda_pad_o
*6 sda_padoen_o
*7 wb_ack_o
*8 wb_adr_i[0]
*9 wb_adr_i[1]
*10 wb_adr_i[2]
*11 wb_clk_i
*12 wb_cyc_i
*13 wb_dat_i[0]
*14 wb_dat_i[1]
*15 wb_dat_i[2]
*16 wb_dat_i[3]
*17 wb_dat_i[4]
*18 wb_dat_i[5]
*19 wb_dat_i[6]
*20 wb_dat_i[7]
*21 wb_dat_o[0]
*22 wb_dat_o[1]
*23 wb_dat_o[2]
*24 wb_dat_o[3]
*25 wb_dat_o[4]
*26 wb_dat_o[5]
*27 wb_dat_o[6]
*28 wb_dat_o[7]
*29 wb_inta_o
*30 wb_rst_i
*31 wb_stb_i
*32 wb_we_i
*33 _0000_
*34 _0001_
*35 _0002_
*36 _0003_
*37 _0004_
*38 _0005_
*39 _0006_
*40 _0007_
*41 _0008_
*42 _0009_
*43 _0010_
*44 _0011_
*45 _0012_
*46 _0013_
*47 _0014_
*48 _0015_
*49 _0016_
*50 _0017_
*51 _0018_
*52 _0019_
*53 _0020_
*54 _0021_
*55 _0022_
*56 _0023_
*57 _0024_
*58 _0025_
*59 _0026_
*60 _0027_
*61 _0028_
*62 _0029_
*63 _0030_
*64 _0031_
*65 _0032_
*66 _0033_
*67 _0034_
*68 _0035_
*69 _0036_
*70 _0037_
*71 _0038_
*72 _0039_
*73 _0040_
*74 _0041_
*75 _0042_
*76 _0043_
*77 _0044_
*78 _0045_
*79 _0046_
*80 _0047_
*81 _0048_
*82 _0049_
*83 _0050_
*84 _0051_
*85 _0052_
*86 _0053_
*87 _0054_
*88 _0055_
*89 _0056_
*90 _0057_
*91 _0058_
*92 _0059_
*93 _0060_
*94 _0061_
*95 _0062_
*96 _0063_
*97 _0064_
*98 _0065_
*99 _0066_
*100 _0067_
*101 _0068_
*102 _0069_
*103 _0070_
*104 _0071_
*105 _0072_
*106 _0073_
*107 _0074_
*108 _0075_
*109 _0076_
*110 _0077_
*111 _0078_
*112 _0079_
*113 _0080_
*114 _0081_
*115 _0082_
*116 _0083_
*117 _0084_
*118 _0085_
*119 _0086_
*120 _0087_
*121 _0088_
*122 _0089_
*123 _0090_
*124 _0091_
*125 _0092_
*126 _0093_
*127 _0094_
*128 _0095_
*129 _0096_
*130 _0097_
*131 _0098_
*132 _0099_
*133 _0100_
*134 _0101_
*135 _0102_
*136 _0103_
*137 _0104_
*138 _0105_
*139 _0106_
*140 _0107_
*141 _0108_
*142 _0109_
*143 _0110_
*144 _0111_
*145 _0112_
*146 _0113_
*147 _0114_
*148 _0115_
*149 _0116_
*150 _0117_
*151 _0118_
*152 _0119_
*153 _0120_
*154 _0121_
*155 _0122_
*156 _0123_
*157 _0124_
*158 _0125_
*159 _0126_
*160 _0127_
*161 _0128_
*162 _0129_
*163 _0130_
*164 _0131_
*165 _0132_
*166 _0133_
*167 _0134_
*168 _0135_
*169 _0136_
*170 _0137_
*171 _0138_
*172 _0139_
*173 _0140_
*174 _0141_
*175 _0142_
*176 _0143_
*177 _0144_
*178 _0145_
*179 _0146_
*180 _0147_
*181 _0148_
*182 _0149_
*183 _0150_
*184 _0151_
*185 _0152_
*186 _0153_
*187 _0154_
*188 _0155_
*189 _0156_
*190 _0157_
*191 _0158_
*192 _0159_
*193 _0160_
*194 _0161_
*195 _0162_
*196 _0163_
*197 _0164_
*198 _0165_
*199 _0166_
*200 _0167_
*201 _0168_
*202 _0169_
*203 _0170_
*204 _0171_
*205 _0172_
*206 _0173_
*207 _0174_
*208 _0175_
*209 _0176_
*210 _0177_
*211 _0178_
*212 _0179_
*213 _0180_
*214 _0181_
*215 _0182_
*216 _0183_
*217 _0184_
*218 _0185_
*219 _0186_
*220 _0187_
*221 _0188_
*222 _0189_
*223 _0190_
*224 _0191_
*225 _0192_
*226 _0193_
*227 _0194_
*228 _0195_
*229 _0196_
*230 _0197_
*231 _0198_
*232 _0199_
*233 _0200_
*234 _0201_
*235 _0202_
*236 _0203_
*237 _0204_
*238 _0205_
*239 _0206_
*240 _0207_
*241 _0208_
*242 _0209_
*243 _0210_
*244 _0211_
*245 _0212_
*246 _0213_
*247 _0214_
*248 _0215_
*249 _0216_
*250 _0217_
*251 _0218_
*252 _0219_
*253 _0220_
*254 _0221_
*255 _0222_
*256 _0223_
*257 _0224_
*258 _0225_
*259 _0226_
*260 _0227_
*261 _0228_
*262 _0229_
*263 _0230_
*264 _0231_
*265 _0232_
*266 _0233_
*267 _0234_
*268 _0235_
*269 _0236_
*270 _0237_
*271 _0238_
*272 _0239_
*273 _0240_
*274 _0241_
*275 _0242_
*276 _0243_
*277 _0244_
*278 _0245_
*279 _0246_
*280 _0247_
*281 _0248_
*282 _0249_
*283 _0250_
*284 _0251_
*285 _0252_
*286 _0253_
*287 _0254_
*288 _0255_
*289 _0256_
*290 _0257_
*291 _0258_
*292 _0259_
*293 _0260_
*294 _0261_
*295 _0262_
*296 _0263_
*297 _0264_
*298 _0265_
*299 _0266_
*300 _0267_
*301 _0268_
*302 _0269_
*303 _0270_
*304 _0271_
*305 _0272_
*306 _0273_
*307 _0274_
*308 _0275_
*309 _0276_
*310 _0277_
*311 _0278_
*312 _0279_
*313 _0280_
*314 _0281_
*315 _0282_
*316 _0283_
*317 _0284_
*318 _0285_
*319 _0286_
*320 _0287_
*321 _0288_
*322 _0289_
*323 _0290_
*324 _0291_
*325 _0292_
*326 _0293_
*327 _0294_
*328 _0295_
*329 _0296_
*330 _0297_
*331 _0298_
*332 _0299_
*333 _0300_
*334 _0301_
*335 _0302_
*336 _0303_
*337 _0304_
*338 _0305_
*339 _0306_
*340 _0307_
*341 _0308_
*342 _0309_
*343 _0310_
*344 _0311_
*345 _0312_
*346 _0313_
*347 _0314_
*348 _0315_
*349 _0316_
*350 _0317_
*351 _0318_
*352 _0319_
*353 _0320_
*354 _0321_
*355 _0322_
*356 _0323_
*357 _0324_
*358 _0325_
*359 _0326_
*360 _0327_
*361 _0328_
*362 _0329_
*363 _0330_
*364 _0331_
*365 _0332_
*366 _0333_
*367 _0334_
*368 _0335_
*369 _0336_
*370 _0337_
*371 _0338_
*372 _0339_
*373 _0340_
*374 _0341_
*375 _0342_
*376 _0343_
*377 _0344_
*378 _0345_
*379 _0346_
*380 _0347_
*381 _0348_
*382 _0349_
*383 _0350_
*384 _0351_
*385 _0352_
*386 _0353_
*387 _0354_
*388 _0355_
*389 _0356_
*390 _0357_
*391 _0358_
*392 _0359_
*393 _0360_
*394 _0361_
*395 _0362_
*396 _0363_
*397 _0364_
*398 _0365_
*399 _0366_
*400 _0367_
*401 _0368_
*402 _0369_
*403 _0370_
*404 _0371_
*405 _0372_
*406 _0373_
*407 _0374_
*408 _0375_
*409 _0376_
*410 _0377_
*411 _0378_
*412 _0379_
*413 _0380_
*414 _0381_
*415 _0382_
*416 _0383_
*417 _0384_
*418 _0385_
*419 _0386_
*420 _0387_
*421 _0388_
*422 _0389_
*423 _0390_
*424 _0391_
*425 _0392_
*426 _0393_
*427 _0394_
*428 _0395_
*429 _0396_
*430 _0397_
*431 _0398_
*432 _0399_
*433 _0400_
*434 _0401_
*435 _0402_
*436 _0403_
*437 _0404_
*438 _0405_
*439 _0406_
*440 _0407_
*441 _0408_
*442 _0409_
*443 _0410_
*444 _0411_
*445 _0412_
*446 _0413_
*447 _0414_
*448 _0415_
*449 _0416_
*450 _0417_
*451 _0418_
*452 _0419_
*453 _0420_
*454 _0421_
*455 _0422_
*456 _0423_
*457 _0424_
*458 _0425_
*459 _0426_
*460 _0427_
*461 _0428_
*462 _0429_
*463 _0430_
*464 _0431_
*465 _0432_
*466 _0433_
*467 _0434_
*468 _0435_
*469 _0436_
*470 _0437_
*471 _0438_
*472 _0439_
*473 _0440_
*474 _0441_
*475 _0442_
*476 _0443_
*477 _0444_
*478 _0445_
*479 _0446_
*480 _0447_
*481 _0448_
*482 _0449_
*483 _0450_
*484 _0451_
*485 _0452_
*486 _0453_
*487 _0454_
*488 _0455_
*489 _0456_
*490 _0457_
*491 _0458_
*492 _0459_
*493 _0460_
*494 _0461_
*495 _0462_
*496 _0463_
*497 _0464_
*498 _0465_
*499 _0466_
*500 _0467_
*501 _0468_
*502 _0469_
*503 _0470_
*504 _0471_
*505 _0472_
*506 _0473_
*507 _0474_
*508 _0475_
*509 _0476_
*510 _0477_
*511 _0478_
*512 _0479_
*513 _0480_
*514 _0481_
*515 _0482_
*516 _0483_
*517 _0484_
*518 _0485_
*519 _0486_
*520 _0487_
*521 _0488_
*522 _0489_
*523 _0490_
*524 _0491_
*525 _0492_
*526 _0493_
*527 _0494_
*528 _0495_
*529 _0496_
*530 _0497_
*531 _0498_
*532 _0499_
*533 _0500_
*534 _0501_
*535 _0502_
*536 _0503_
*537 _0504_
*538 _0505_
*539 _0506_
*540 _0507_
*541 _0508_
*542 _0509_
*543 _0510_
*544 _0511_
*545 _0512_
*546 _0513_
*547 _0514_
*548 _0515_
*549 _0516_
*550 _0517_
*551 _0518_
*552 _0519_
*553 _0520_
*554 _0521_
*555 _0522_
*556 _0523_
*557 _0524_
*558 _0525_
*559 _0526_
*560 _0527_
*561 _0528_
*562 _0529_
*563 _0530_
*564 _0531_
*565 _0532_
*566 _0533_
*567 _0534_
*568 _0535_
*569 _0536_
*570 _0537_
*571 _0538_
*572 _0539_
*573 _0540_
*574 _0541_
*575 _0542_
*576 _0543_
*577 _0544_
*578 _0545_
*579 _0546_
*580 _0547_
*581 _0548_
*582 _0549_
*583 _0550_
*584 _0551_
*585 _0552_
*586 _0553_
*587 _0554_
*588 _0555_
*589 _0556_
*590 _0557_
*591 _0558_
*592 _0559_
*593 _0560_
*594 _0561_
*595 _0562_
*596 _0563_
*597 _0564_
*598 _0565_
*599 _0566_
*600 _0567_
*601 _0568_
*602 _0569_
*603 _0570_
*604 _0571_
*605 _0572_
*606 _0573_
*607 _0574_
*608 _0575_
*609 _0576_
*610 _0577_
*611 _0578_
*612 _0579_
*613 _0580_
*614 _0581_
*615 _0582_
*616 _0583_
*617 _0584_
*618 _0585_
*619 _0586_
*620 _0587_
*621 _0588_
*622 _0589_
*623 _0590_
*624 _0591_
*625 _0592_
*626 _0593_
*627 _0594_
*628 _0595_
*629 _0596_
*630 _0597_
*631 _0598_
*632 _0599_
*633 _0600_
*634 _0601_
*635 _0602_
*636 _0603_
*637 _0604_
*638 _0605_
*639 _0606_
*640 _0607_
*641 _0608_
*642 _0609_
*643 _0610_
*644 _0611_
*645 al
*646 byte_controller.ack_in
*647 byte_controller.ack_out
*648 byte_controller.bit_controller.al
*649 byte_controller.bit_controller.busy
*650 byte_controller.bit_controller.cSCL\[0\]
*651 byte_controller.bit_controller.cSCL\[1\]
*652 byte_controller.bit_controller.cSDA\[0\]
*653 byte_controller.bit_controller.cSDA\[1\]
*654 byte_controller.bit_controller.c_state\[0\]
*655 byte_controller.bit_controller.c_state\[10\]
*656 byte_controller.bit_controller.c_state\[11\]
*657 byte_controller.bit_controller.c_state\[12\]
*658 byte_controller.bit_controller.c_state\[13\]
*659 byte_controller.bit_controller.c_state\[14\]
*660 byte_controller.bit_controller.c_state\[15\]
*661 byte_controller.bit_controller.c_state\[16\]
*662 byte_controller.bit_controller.c_state\[1\]
*663 byte_controller.bit_controller.c_state\[2\]
*664 byte_controller.bit_controller.c_state\[3\]
*665 byte_controller.bit_controller.c_state\[4\]
*666 byte_controller.bit_controller.c_state\[5\]
*667 byte_controller.bit_controller.c_state\[6\]
*668 byte_controller.bit_controller.c_state\[7\]
*669 byte_controller.bit_controller.c_state\[8\]
*670 byte_controller.bit_controller.c_state\[9\]
*671 byte_controller.bit_controller.clk_cnt\[0\]
*672 byte_controller.bit_controller.clk_cnt\[10\]
*673 byte_controller.bit_controller.clk_cnt\[11\]
*674 byte_controller.bit_controller.clk_cnt\[12\]
*675 byte_controller.bit_controller.clk_cnt\[13\]
*676 byte_controller.bit_controller.clk_cnt\[14\]
*677 byte_controller.bit_controller.clk_cnt\[15\]
*678 byte_controller.bit_controller.clk_cnt\[1\]
*679 byte_controller.bit_controller.clk_cnt\[2\]
*680 byte_controller.bit_controller.clk_cnt\[3\]
*681 byte_controller.bit_controller.clk_cnt\[4\]
*682 byte_controller.bit_controller.clk_cnt\[5\]
*683 byte_controller.bit_controller.clk_cnt\[6\]
*684 byte_controller.bit_controller.clk_cnt\[7\]
*685 byte_controller.bit_controller.clk_cnt\[8\]
*686 byte_controller.bit_controller.clk_cnt\[9\]
*687 byte_controller.bit_controller.clk_en
*688 byte_controller.bit_controller.cmd_ack
*689 byte_controller.bit_controller.cmd_stop
*690 byte_controller.bit_controller.cnt\[0\]
*691 byte_controller.bit_controller.cnt\[10\]
*692 byte_controller.bit_controller.cnt\[11\]
*693 byte_controller.bit_controller.cnt\[12\]
*694 byte_controller.bit_controller.cnt\[13\]
*695 byte_controller.bit_controller.cnt\[14\]
*696 byte_controller.bit_controller.cnt\[15\]
*697 byte_controller.bit_controller.cnt\[1\]
*698 byte_controller.bit_controller.cnt\[2\]
*699 byte_controller.bit_controller.cnt\[3\]
*700 byte_controller.bit_controller.cnt\[4\]
*701 byte_controller.bit_controller.cnt\[5\]
*702 byte_controller.bit_controller.cnt\[6\]
*703 byte_controller.bit_controller.cnt\[7\]
*704 byte_controller.bit_controller.cnt\[8\]
*705 byte_controller.bit_controller.cnt\[9\]
*706 byte_controller.bit_controller.dSCL
*707 byte_controller.bit_controller.dSDA
*708 byte_controller.bit_controller.din
*709 byte_controller.bit_controller.dout
*710 byte_controller.bit_controller.dscl_oen
*711 byte_controller.bit_controller.ena
*712 byte_controller.bit_controller.fSCL\[0\]
*713 byte_controller.bit_controller.fSCL\[1\]
*714 byte_controller.bit_controller.fSCL\[2\]
*715 byte_controller.bit_controller.fSDA\[0\]
*716 byte_controller.bit_controller.fSDA\[1\]
*717 byte_controller.bit_controller.fSDA\[2\]
*718 byte_controller.bit_controller.filter_cnt\[0\]
*719 byte_controller.bit_controller.filter_cnt\[10\]
*720 byte_controller.bit_controller.filter_cnt\[11\]
*721 byte_controller.bit_controller.filter_cnt\[12\]
*722 byte_controller.bit_controller.filter_cnt\[13\]
*723 byte_controller.bit_controller.filter_cnt\[1\]
*724 byte_controller.bit_controller.filter_cnt\[2\]
*725 byte_controller.bit_controller.filter_cnt\[3\]
*726 byte_controller.bit_controller.filter_cnt\[4\]
*727 byte_controller.bit_controller.filter_cnt\[5\]
*728 byte_controller.bit_controller.filter_cnt\[6\]
*729 byte_controller.bit_controller.filter_cnt\[7\]
*730 byte_controller.bit_controller.filter_cnt\[8\]
*731 byte_controller.bit_controller.filter_cnt\[9\]
*732 byte_controller.bit_controller.sSCL
*733 byte_controller.bit_controller.sSDA
*734 byte_controller.bit_controller.sda_chk
*735 byte_controller.bit_controller.slave_wait
*736 byte_controller.bit_controller.sta_condition
*737 byte_controller.bit_controller.sto_condition
*738 byte_controller.c_state\[0\]
*739 byte_controller.c_state\[1\]
*740 byte_controller.c_state\[2\]
*741 byte_controller.c_state\[3\]
*742 byte_controller.c_state\[4\]
*743 byte_controller.c_state\[5\]
*744 byte_controller.cmd_ack
*745 byte_controller.core_cmd\[1\]
*746 byte_controller.core_cmd\[2\]
*747 byte_controller.core_cmd\[3\]
*748 byte_controller.core_cmd\[4\]
*749 byte_controller.dcnt\[0\]
*750 byte_controller.dcnt\[1\]
*751 byte_controller.dcnt\[2\]
*752 byte_controller.din\[0\]
*753 byte_controller.din\[1\]
*754 byte_controller.din\[2\]
*755 byte_controller.din\[3\]
*756 byte_controller.din\[4\]
*757 byte_controller.din\[5\]
*758 byte_controller.din\[6\]
*759 byte_controller.din\[7\]
*760 byte_controller.dout\[0\]
*761 byte_controller.dout\[1\]
*762 byte_controller.dout\[2\]
*763 byte_controller.dout\[3\]
*764 byte_controller.dout\[4\]
*765 byte_controller.dout\[5\]
*766 byte_controller.dout\[6\]
*767 byte_controller.dout\[7\]
*768 byte_controller.ld
*769 byte_controller.read
*770 byte_controller.shift
*771 byte_controller.start
*772 byte_controller.stop
*773 byte_controller.write
*774 cr\[0\]
*775 cr\[1\]
*776 cr\[2\]
*777 ctr\[0\]
*778 ctr\[1\]
*779 ctr\[2\]
*780 ctr\[3\]
*781 ctr\[4\]
*782 ctr\[5\]
*783 ctr\[6\]
*784 irq_flag
*785 rxack
*786 tip
*787 net1
*788 net2
*789 net3
*790 net4
*791 net5
*792 net6
*793 net7
*794 net8
*795 net9
*796 net10
*797 net11
*798 net12
*799 net13
*800 net14
*801 net15
*802 net16
*803 net17
*804 net18
*805 net19
*806 net20
*807 net21
*808 net22
*809 net23
*810 net24
*811 net25
*812 net26
*813 net27
*814 net28
*815 net29
*816 net30
*817 net31
*818 net32
*819 net33
*820 net34
*821 net35
*822 net36
*823 net37
*824 net38
*825 net39
*826 net40
*827 clknet_0_wb_clk_i
*828 clknet_3_0_0_wb_clk_i
*829 clknet_3_1_0_wb_clk_i
*830 clknet_3_2_0_wb_clk_i
*831 clknet_3_3_0_wb_clk_i
*832 clknet_3_4_0_wb_clk_i
*833 clknet_3_5_0_wb_clk_i
*834 clknet_3_6_0_wb_clk_i
*835 clknet_3_7_0_wb_clk_i
*836 clknet_4_0_0_wb_clk_i
*837 clknet_4_1_0_wb_clk_i
*838 clknet_4_2_0_wb_clk_i
*839 clknet_4_3_0_wb_clk_i
*840 clknet_4_4_0_wb_clk_i
*841 clknet_4_5_0_wb_clk_i
*842 clknet_4_6_0_wb_clk_i
*843 clknet_4_7_0_wb_clk_i
*844 clknet_4_8_0_wb_clk_i
*845 clknet_4_9_0_wb_clk_i
*846 clknet_4_10_0_wb_clk_i
*847 clknet_4_11_0_wb_clk_i
*848 clknet_4_12_0_wb_clk_i
*849 clknet_4_13_0_wb_clk_i
*850 clknet_4_14_0_wb_clk_i
*851 clknet_4_15_0_wb_clk_i

*D_NET *0 0.0010480728243800002
*CONN
*P arst_i I
*I input1:A I
*CAP
0 *0:1 0.0006858781437400002
1 *0:3 0.0003621946806399999
2 input1:A 0
*RES
0 *0:1 *0:2 7.741071428571428
1 *0:3 input1:A 3.6964285714285707
2 *0:3 *0:2 0
3 input1:A input1:A 0
*END

*D_NET *1 0.0007891838196600001
*CONN
*P scl_pad_i I
*I input2:A I
*CAP
3 *1:1 5.034052896000001e-05
4 *1:2 0.0007388432907000001
5 input2:A 0
*RES
4 *1:1 input2:A 0.4107142857142857
5 *1:2 *1:3 8.348214285714285
6 input2:A input2:A 0
7 *1:1 *1:2 0
*END

*D_NET *2 0.00090464494402
*CONN
*P scl_pad_o O
*I output19:X O
*CAP
6 *2:1 0.00024524937376
7 *2:2 0.00065939557026
8 output19:X 0
*RES
8 *2:1 output19:X 2.464285714285714
9 *2:2 *2:3 7.437499999999999
10 output19:X output19:X 0
11 *2:1 *2:2 0
*END

*D_NET *3 0.0008921457485400002
*CONN
*P scl_padoen_o O
*I output20:X O
*CAP
9 *3:1 0.0002062676048
10 *3:2 0.0006858781437400002
11 output20:X 0
*RES
12 *3:1 output20:X 2.0535714285714284
13 *3:2 *3:3 7.741071428571428
14 output20:X output20:X 0
15 *3:1 *3:2 0
*END

*D_NET *4 0.0018116744462400003
*CONN
*P sda_pad_i I
*I input3:A I
*CAP
12 *4:1 0.0005961448329
13 *4:3 0.0012155296133400002
14 input3:A 0
*RES
16 *4:1 *4:2 1.0449666666666666
17 *4:3 *4:4 13.8125
18 input3:A input3:A 0
19 input3:A *4:4 0
20 *4:3 *4:1 0
*END

*D_NET *5 0.00056760653272
*CONN
*P sda_pad_o O
*I output21:X O
*CAP
15 *5:1 5.029638022e-05
16 *5:3 0.0005173101524999999
17 output21:X 0
*RES
21 *5:1 *5:2 0.45535714285714285
22 *5:3 *5:4 0.9008333333333334
23 output21:X output21:X 0
24 output21:X *5:2 0
25 *5:1 *5:3 0
*END

*D_NET *6 0.0006064304233
*CONN
*P sda_padoen_o O
*I output22:X O
*CAP
18 *6:1 0.0006064304233
19 output22:X 0
*RES
26 *6:1 *6:2 6.830357142857142
27 output22:X output22:X 0
28 output22:X *6:2 0
*END

*D_NET *7 0.00069575272122
*CONN
*P wb_ack_o O
*I output23:X O
*CAP
20 *7:1 0.0006064304233
21 *7:3 8.932229792e-05
22 output23:X 0
*RES
29 *7:1 *7:2 6.830357142857142
30 *7:3 output23:X 0.8214285714285714
31 *7:3 *7:2 0
32 output23:X output23:X 0
*END

*D_NET *8 0.0007891838196600001
*CONN
*P wb_adr_i[0] I
*I input4:A I
*CAP
23 *8:1 5.034052896000001e-05
24 *8:2 0.0007388432907000001
25 input4:A 0
*RES
33 *8:1 input4:A 0.4107142857142857
34 *8:2 *8:3 8.348214285714285
35 input4:A input4:A 0
36 *8:1 *8:2 0
*END

*D_NET *9 0.00098409266446
*CONN
*P wb_adr_i[1] I
*I input5:A I
*CAP
26 *9:1 0.00024524937376
27 *9:2 0.0007388432907000001
28 input5:A 0
*RES
37 *9:1 input5:A 2.464285714285714
38 *9:2 *9:3 8.348214285714285
39 input5:A input5:A 0
40 *9:1 *9:2 0
*END

*D_NET *10 0.00060702387292
*CONN
*P wb_adr_i[2] I
*I input6:A I
*CAP
29 *10:1 0.0005567274927
30 *10:3 5.029638022e-05
31 input6:A 0
*RES
41 *10:1 *10:2 0.9729000000000001
42 *10:3 *10:4 0.45535714285714285
43 *10:3 *10:2 0
44 input6:A input6:A 0
45 input6:A *10:4 0
*END

*D_NET *11 0.012123431030100001
*CONN
*P wb_clk_i I
*I clkbuf_0_wb_clk_i:A I
*CAP
32 *11:1 4.017137184e-05
33 *11:2 0.0003621946806399999
34 *11:4 0.0013214599072599999
35 *11:6 0.004433162291160001
36 *11:8 0.00104556524032
37 *11:9 0.00061557617888
38 *11:10 6.898398368e-05
39 *11:11 0.00096641209952
40 *11:12 4.017137184e-05
41 *11:13 0.00297397320096
42 *11:15 0.00025576070399999996
43 clkbuf_0_wb_clk_i:A 0
44 *11:3 0
*RES
46 *11:1 clkbuf_0_wb_clk_i:A 0.30357142857142855
47 *11:2 *11:3 3.6964285714285707
48 *11:4 *11:5 15.026785714285712
49 *11:6 *11:7 50.69642857142857
50 *11:8 *11:1 10.473214285714285
51 *11:9 *11:10 6.366071428571428
52 *11:10 *11:11 0.6071428571428571
53 *11:11 *11:12 10.062499999999998
54 *11:12 *11:13 0.30357142857142855
55 *11:13 *11:14 31.21428571428571
56 *11:15 *11:14 0.6071428571428571
57 *11:15 *11:16 1.8482142857142854
58 *11:8 *11:16 0.30357142857142855
59 *11:9 *11:7 0
60 clkbuf_0_wb_clk_i:A clkbuf_0_wb_clk_i:A 0
61 *11:2 *11:5 0
62 *11:3 *11:6 0
*END

*D_NET *12 0.00060702387292
*CONN
*P wb_cyc_i I
*I input7:A I
*CAP
45 *12:1 5.029638022e-05
46 *12:3 0.0005567274927
47 input7:A 0
48 *12:2 0
*RES
63 *12:1 *12:2 0.45535714285714285
64 *12:3 *12:4 0.9729000000000001
65 input7:A input7:A 0
66 input7:A *12:1 0
67 *12:2 *12:4 0
*END

*D_NET *13 0.0011400197403
*CONN
*P wb_dat_i[0] I
*I input8:A I
*CAP
49 *13:1 0.00040117644959999997
50 *13:2 0.0007388432907000001
51 input8:A 0
*RES
68 *13:1 input8:A 4.107142857142857
69 *13:2 *13:3 8.348214285714285
70 input8:A input8:A 0
71 *13:1 *13:2 0
*END

*D_NET *14 0.00119150070474
*CONN
*P wb_dat_i[1] I
*I input9:A I
*CAP
52 *14:1 0.0007123607172200001
53 *14:3 0.0004791399875199999
54 input9:A 0
*RES
72 *14:1 *14:2 8.044642857142856
73 *14:3 input9:A 4.928571428571428
74 *14:3 *14:2 0
75 input9:A input9:A 0
*END

*D_NET *15 0.0007891838196600001
*CONN
*P wb_dat_i[2] I
*I input10:A I
*CAP
55 *15:1 5.034052896000001e-05
56 *15:2 0.0007388432907000001
57 input10:A 0
*RES
76 *15:1 input10:A 0.4107142857142857
77 *15:2 *15:3 8.348214285714285
78 input10:A input10:A 0
79 *15:1 *15:2 0
*END

*D_NET *16 0.0011463724512
*CONN
*P wb_dat_i[3] I
*I input11:A I
*CAP
58 *16:1 5.034052896000001e-05
59 *16:2 0.00042105240893999997
60 *16:4 0.0006749795133
61 input11:A 0
*RES
80 *16:1 input11:A 0.4107142857142857
81 *16:2 *16:3 4.705357142857142
82 *16:4 *16:5 1.1891
83 input11:A input11:A 0
84 *16:1 *16:3 0
85 *16:2 *16:4 0
*END

*D_NET *17 0.0008141822106200002
*CONN
*P wb_dat_i[4] I
*I input12:A I
*CAP
62 *17:1 0.0006858781437400002
63 input12:A 0.00012830406688
64 *17:3 0
*RES
86 *17:1 *17:2 7.741071428571428
87 input12:A *17:3 1.232142857142857
88 *17:3 *17:2 0
89 input12:A input12:A 0
*END

*D_NET *18 0.00061995863964
*CONN
*P wb_dat_i[5] I
*I input13:A I
*CAP
65 *18:1 2.3813806740000006e-05
66 *18:3 0.0005961448329
67 input13:A 0
68 *18:2 0
*RES
90 *18:1 *18:2 0.15178571428571427
91 *18:3 *18:4 1.0449666666666666
92 input13:A input13:A 0
93 input13:A *18:1 0
94 *18:2 *18:3 0
*END

*D_NET *19 0.00120637910598
*CONN
*P wb_dat_i[6] I
*I input14:A I
*CAP
69 input14:A 4.017137184e-05
70 *19:2 0.0004803295904
71 *19:4 0.0006858781437400002
72 *19:3 0
*RES
95 input14:A *19:1 0.30357142857142855
96 *19:2 *19:1 4.517857142857142
97 *19:2 *19:3 0.30357142857142855
98 *19:4 *19:5 7.741071428571428
99 input14:A input14:A 0
100 *19:3 *19:4 0
*END

*D_NET *20 0.0016901847676
*CONN
*P wb_dat_i[7] I
*I input15:A I
*CAP
73 *20:1 0.0005567274927
74 input15:A 5.034052896000001e-05
75 *20:4 0.0010831167459400002
76 *20:5 0
77 *20:3 0
*RES
101 *20:1 *20:2 0.9729000000000001
102 input15:A *20:3 0.4107142857142857
103 *20:4 *20:5 12.294642857142856
104 *20:5 *20:1 0
105 *20:3 *20:4 0
106 input15:A input15:A 0
*END

*D_NET *21 0.00130378370956
*CONN
*P wb_dat_o[0] O
*I output24:X O
*CAP
78 *21:1 0.0006749795133
79 *21:3 0.00012830406688
80 *21:4 0.0005005001293800001
81 output24:X 0
*RES
107 *21:1 *21:2 1.1891
108 *21:3 output24:X 1.232142857142857
109 *21:4 *21:5 5.616071428571428
110 *21:4 *21:1 0
111 *21:3 *21:5 0
112 output24:X output24:X 0
*END

*D_NET *22 0.00061995863964
*CONN
*P wb_dat_o[1] O
*I output25:X O
*CAP
82 *22:1 0.0005961448329
83 *22:3 2.3813806740000006e-05
84 *22:4 0
85 output25:X 0
*RES
113 *22:1 *22:2 1.0449666666666666
114 *22:3 *22:4 0.15178571428571427
115 *22:4 *22:2 0
116 output25:X output25:X 0
117 output25:X *22:3 0
*END

*D_NET *23 0.00074871786818
*CONN
*P wb_dat_o[2] O
*I output26:X O
*CAP
86 *23:1 8.932229792e-05
87 *23:2 0.00065939557026
88 output26:X 0
*RES
118 *23:1 output26:X 0.8214285714285714
119 *23:2 *23:3 7.437499999999999
120 output26:X output26:X 0
121 *23:1 *23:2 0
*END

*D_NET *24 0.00061995863964
*CONN
*P wb_dat_o[3] O
*I output27:X O
*CAP
89 *24:1 0.0005961448329
90 *24:3 2.3813806740000006e-05
91 output27:X 0
*RES
122 *24:1 *24:2 1.0449666666666666
123 *24:3 *24:4 0.15178571428571427
124 *24:3 *24:2 0
125 output27:X output27:X 0
126 output27:X *24:4 0
*END

*D_NET *25 0.00072588893356
*CONN
*P wb_dat_o[4] O
*I output28:X O
*CAP
92 *25:1 0.00012974410066
93 *25:3 0.0005961448329
94 output28:X 0
95 *25:2 0
*RES
127 *25:1 *25:2 1.3660714285714284
128 *25:3 *25:4 1.0449666666666666
129 output28:X output28:X 0
130 output28:X *25:1 0
131 *25:2 *25:4 0
*END

*D_NET *26 0.0019836352794200002
*CONN
*P wb_dat_o[5] O
*I output29:X O
*CAP
96 *26:1 0.0006858781437400002
97 *26:3 0.0012977571356799999
98 output29:X 0
*RES
132 *26:1 *26:2 7.741071428571428
133 *26:3 output29:X 13.553571428571427
134 *26:3 *26:2 0
135 output29:X output29:X 0
*END

*D_NET *27 0.00071374535638
*CONN
*P wb_dat_o[6] O
*I output30:X O
*CAP
99 *27:1 0.00016946796088000002
100 *27:2 4.640188412000001e-05
101 *27:3 0.00044753498242
102 *27:5 5.034052896000001e-05
103 output30:X 0
*RES
136 *27:1 *27:2 1.8214285714285714
137 *27:2 *27:3 0.4107142857142857
138 *27:3 *27:4 5.008928571428571
139 *27:5 output30:X 0.4107142857142857
140 *27:5 *27:4 0
141 output30:X output30:X 0
*END

*D_NET *28 0.00086566317506
*CONN
*P wb_dat_o[7] O
*I output31:X O
*CAP
104 *28:1 0.00065939557026
105 *28:3 0.0002062676048
106 output31:X 0
*RES
142 *28:1 *28:2 7.437499999999999
143 *28:3 output31:X 2.0535714285714284
144 output31:X output31:X 0
145 *28:3 *28:1 0
*END

*D_NET *29 0.00107307121534
*CONN
*P wb_inta_o O
*I output32:X O
*CAP
107 *29:1 0.00063291299678
108 *29:3 0.00044015821855999997
109 output32:X 0
*RES
146 *29:1 *29:2 7.133928571428571
147 *29:3 output32:X 4.517857142857142
148 *29:3 *29:2 0
149 output32:X output32:X 0
*END

*D_NET *30 0.0006599890198799999
*CONN
*P wb_rst_i I
*I input16:A I
*CAP
110 *30:1 0.00010326152718000001
111 *30:3 0.0005567274927
112 input16:A 0
113 *30:2 0
*RES
150 *30:1 *30:2 1.0624999999999998
151 *30:3 *30:4 0.9729000000000001
152 input16:A input16:A 0
153 input16:A *30:1 0
154 *30:2 *30:4 0
*END

*D_NET *31 0.0027518623201
*CONN
*P wb_stb_i I
*I input17:A I
*CAP
114 *31:1 0.0005181217564799999
115 input17:A 4.017137184e-05
116 *31:3 0.00125877536672
117 *31:5 0.00011650281392
118 *31:7 0.00081829101114
119 *31:2 0
120 *31:4 0
*RES
155 *31:1 *31:2 5.339285714285714
156 input17:A *31:1 0.30357142857142855
157 *31:3 *31:4 13.142857142857142
158 *31:5 *31:6 1.2142857142857142
159 *31:7 *31:8 9.25892857142857
160 *31:2 *31:5 0
161 input17:A input17:A 0
162 *31:3 *31:6 0
163 *31:4 *31:8 0
*END

*D_NET *32 0.0006205716796799999
*CONN
*P wb_we_i I
*I input18:A I
*CAP
121 *32:1 0.00010326152718000001
122 *32:3 0.0005173101524999999
123 input18:A 0
*RES
164 *32:1 *32:2 1.0624999999999998
165 *32:3 *32:4 0.9008333333333334
166 input18:A input18:A 0
167 input18:A *32:2 0
168 *32:1 *32:3 0
*END

*D_NET *33 0.00102889480756
*CONN
*I _1238_:D I
*I _1027_:Y O
*CAP
124 *33:1 0.00035484597524
125 _1238_:D 0.00067404883232
126 _1027_:Y 0
127 *33:3 0
*RES
169 *33:1 *33:2 3.946428571428571
170 _1238_:D *33:3 6.982142857142857
171 _1027_:Y _1027_:Y 0
172 _1027_:Y *33:1 0
173 *33:3 *33:2 0
174 _1238_:D _1238_:D 0
*END

*D_NET *34 0.0002448068808
*CONN
*I _1241_:D I
*I _1022_:X O
*CAP
128 _1022_:X 0.00012830406688
129 *34:2 0.00011650281392
130 *34:1 0
131 _1241_:D 0
*RES
175 _1022_:X *34:1 1.232142857142857
176 *34:2 *34:3 1.2142857142857142
177 _1022_:X _1022_:X 0
178 *34:1 *34:2 0
179 _1241_:D _1241_:D 0
180 _1241_:D *34:3 0
*END

*D_NET *35 0.0004051865042
*CONN
*I _1239_:D I
*I _1025_:X O
*CAP
132 *35:1 5.034052896000001e-05
133 *35:2 0.00035484597524
134 _1025_:X 0
135 _1239_:D 0
*RES
181 *35:1 _1025_:X 0.4107142857142857
182 *35:2 *35:3 3.946428571428571
183 _1025_:X _1025_:X 0
184 *35:1 *35:2 0
185 _1239_:D _1239_:D 0
186 _1239_:D *35:3 0
*END

*D_NET *36 0.00127859672888
*CONN
*I _1240_:D I
*I _1024_:X O
*CAP
136 *36:1 5.034052896000001e-05
137 *36:2 0.00059318913656
138 _1240_:D 0.00063506706336
139 _1024_:X 0
140 *36:4 0
*RES
187 *36:1 _1024_:X 0.4107142857142857
188 *36:2 *36:3 6.678571428571428
189 _1240_:D *36:4 6.571428571428571
190 _1240_:D _1240_:D 0
191 _1024_:X _1024_:X 0
192 *36:1 *36:2 0
193 *36:4 *36:3 0
*END

*D_NET *37 0.0007497934760000001
*CONN
*I _1234_:D I
*I _1163_:X O
*CAP
141 *37:1 0.0003100777504
142 _1163_:X 0.00032321291168
143 *37:3 0.00011650281392
144 _1234_:D 0
145 *37:2 0
*RES
194 *37:1 _1234_:D 3.1473214285714284
195 _1163_:X *37:2 3.2857142857142856
196 *37:3 *37:4 1.2142857142857142
197 *37:1 *37:3 0
198 _1234_:D _1234_:D 0
199 *37:2 *37:4 0
200 _1163_:X _1163_:X 0
*END

*D_NET *38 0.005405326898280001
*CONN
*I _1237_:D I
*I _1021_:X O
*CAP
146 *38:1 0.0005181217564799999
147 *38:3 0.0004078111222
148 _1021_:X 0.00012830406688
149 _1237_:D 5.034052896000001e-05
150 *38:7 0.004300749423760001
151 *38:2 0
152 *38:5 0
153 *38:6 0
*RES
201 *38:1 *38:2 5.339285714285714
202 *38:3 *38:4 4.553571428571428
203 _1021_:X *38:5 1.232142857142857
204 _1237_:D *38:6 0.4107142857142857
205 *38:7 *38:8 49.17857142857142
206 *38:2 *38:8 0
207 *38:1 *38:3 0
208 *38:5 *38:4 0
209 _1021_:X _1021_:X 0
210 *38:6 *38:7 0
211 _1237_:D _1237_:D 0
*END

*D_NET *39 0.0010943591499999999
*CONN
*I _1246_:D I
*I _1000_:Y O
*CAP
154 *39:1 0.00038132854871999994
155 _1246_:D 0.00071303060128
156 *39:3 0
157 _1000_:Y 0
*RES
212 *39:1 *39:2 4.249999999999999
213 _1246_:D *39:3 7.3928571428571415
214 _1246_:D _1246_:D 0
215 *39:3 *39:2 0
216 _1000_:Y _1000_:Y 0
217 _1000_:Y *39:1 0
*END

*D_NET *40 0.00125719243828
*CONN
*I _1247_:D I
*I _0990_:X O
*CAP
158 *40:1 0.00014298538739999998
159 *40:3 0.00032321291168
160 _1247_:D 0.0007909941392
161 *40:4 0
162 _0990_:X 0
*RES
218 *40:1 *40:2 1.5178571428571426
219 *40:3 _0990_:X 3.2857142857142856
220 _1247_:D *40:4 8.214285714285714
221 _1247_:D _1247_:D 0
222 *40:4 *40:1 0
223 *40:3 *40:2 0
224 _0990_:X _0990_:X 0
*END

*D_NET *41 0.00041768569967999997
*CONN
*I _1248_:D I
*I _1019_:Y O
*CAP
163 *41:1 8.932229792e-05
164 *41:2 0.00032836340175999997
165 _1019_:Y 0
166 _1248_:D 0
*RES
225 *41:1 _1019_:Y 0.8214285714285714
226 *41:2 *41:3 3.642857142857143
227 *41:1 *41:3 0
228 _1019_:Y _1019_:Y 0
229 _1248_:D _1248_:D 0
230 _1248_:D *41:2 0
*END

*D_NET *42 0.00122380365236
*CONN
*I _1249_:D I
*I _1013_:X O
*CAP
167 *42:1 0.00035484597524
168 _1249_:D 0.00086895767712
169 *42:3 0
170 _1013_:X 0
*RES
231 *42:1 *42:2 3.946428571428571
232 _1249_:D *42:3 9.035714285714285
233 _1249_:D _1249_:D 0
234 *42:3 *42:1 0
235 _1013_:X _1013_:X 0
236 _1013_:X *42:2 0
*END

*D_NET *43 0.001211416848
*CONN
*I _1250_:D I
*I _1012_:X O
*CAP
171 *43:1 4.017137184e-05
172 *43:2 8.932229792e-05
173 *43:4 0.0004803295904
174 _1250_:D 0.00060159358784
175 _1012_:X 0
*RES
237 *43:1 *43:2 0.30357142857142855
238 *43:2 *43:3 0.8214285714285714
239 *43:4 *43:3 0.30357142857142855
240 *43:4 _1012_:X 4.517857142857142
241 _1250_:D *43:1 6.218749999999999
242 _1250_:D _1250_:D 0
243 _1012_:X _1012_:X 0
*END

*D_NET *44 0.0014797242920400002
*CONN
*I _1251_:D I
*I _0986_:X O
*CAP
176 *44:1 0.00014298538739999998
177 *44:3 0.0013367389046400001
178 _1251_:D 0
179 _0986_:X 0
*RES
244 *44:1 *44:2 1.5178571428571426
245 *44:3 _0986_:X 13.964285714285714
246 *44:3 *44:1 0
247 _1251_:D _1251_:D 0
248 _1251_:D *44:2 0
249 _0986_:X _0986_:X 0
*END

*D_NET *45 0.00046768248160000003
*CONN
*I _1242_:D I
*I _1017_:X O
*CAP
180 _1242_:D 0.00024524937376
181 *45:2 0.00022243310784000002
182 *45:1 0
183 _1017_:X 0
*RES
250 _1242_:D *45:1 2.464285714285714
251 *45:2 *45:3 2.4285714285714284
252 _1242_:D _1242_:D 0
253 *45:1 *45:2 0
254 _1017_:X _1017_:X 0
255 _1017_:X *45:3 0
*END